geometry optimzed in LAMMPS
_audit_creation_date              2020-12-01 
_audit_creation_method            'lammps2cif' 
_symmetry_space_group_name_H-M    'P1' 
_symmetry_Int_Tables_number       1 
_symmetry_cell_setting            triclinic 
loop_ 
_symmetry_equiv_pos_as_xyz 
  x,y,z 
_cell_length_a                    43.03979739 
_cell_length_b                    43.022331718856734 
_cell_length_c                    61.676583443985464 
_cell_angle_alpha                 89.90754719404141 
_cell_angle_beta                  89.91420333176256 
_cell_angle_gamma                 120.01597474904037 
loop_ 
_atom_site_label 
_atom_site_type_symbol 
_atom_site_fract_x 
_atom_site_fract_y 
_atom_site_fract_z 
_atom_site_charge 
O1          O  0.01109135  0.42604539  0.24685985    -0.74700
O2          O  0.00887577  0.33507929  0.25519680    -0.74700
O3          O  0.00703989  0.37340706  0.22123736    -0.74800
O4          O  0.01822000  0.39099255  0.28091844    -0.74800
O5          O  0.47067336  0.37765442  0.28993541    -0.74800
O6          O  0.44456943  0.34248483  0.23075230    -0.74700
O7          O  0.45828853  0.31708255  0.26756076    -0.74700
O8          O  0.45201708  0.39897992  0.25364637    -0.74800
Ni9        Ni  0.01340707  0.38222682  0.25099073     1.25400
Ni10       Ni  0.45440115  0.35787427  0.26092710     1.25400
C11         C  0.98095503  0.42575006  0.24745905     0.87500
C12         C  0.97802724  0.30654367  0.25805331     0.87400
C13         C  0.47017888  0.35307025  0.21670725     0.87500
C14         C  0.99151250  0.38263592  0.29325114     0.87600
O15         O  0.01560474  0.41728554  0.42568302    -0.74700
O16         O  0.10806969  0.42432726  0.41408238    -0.74700
O17         O  0.07230624  0.42704357  0.44947084    -0.74800
O18         O  0.04840104  0.41019121  0.39029806    -0.74800
O19         O  0.07040632  0.46838034  0.38399091    -0.74800
O20         O  0.09851014  0.48621813  0.44457487    -0.74700
O21         O  0.13069365  0.48250159  0.40748503    -0.74700
O22         O  0.04206265  0.47648583  0.42096078    -0.74800
Ni23       Ni  0.06041148  0.41761512  0.41997765     1.25400
Ni24       Ni  0.08653972  0.48049656  0.41393581     1.25400
C25         C  0.01426751  0.44658742  0.42539577     0.87500
C26         C  0.13514726  0.45547328  0.40955310     0.87400
C27         C  0.08807364  0.45872030  0.45708105     0.87500
C28         C  0.05259233  0.43544241  0.37764975     0.87600
O29         O  0.42390491  0.04832442  0.24622901    -0.74700
O30         O  0.42810398  0.14028376  0.25518364    -0.74700
O31         O  0.43128226  0.10302670  0.22084411    -0.74800
O32         O  0.41518666  0.08245765  0.28016140    -0.74800
O33         O  0.47325606  0.10444669  0.28656783    -0.74800
O34         O  0.49063409  0.13207743  0.22527683    -0.74700
O35         O  0.48629060  0.16401758  0.26223341    -0.74700
O36         O  0.48337858  0.07684664  0.24980082    -0.74800
Ni37       Ni  0.42253955  0.09275104  0.25044736     1.25400
Ni38       Ni  0.48555438  0.12055314  0.25625405     1.25400
C39         C  0.45382856  0.04810908  0.24670574     0.87500
C40         C  0.45894397  0.16770408  0.25978920     0.87400
C41         C  0.46272002  0.12021645  0.21298694     0.87500
C42         C  0.44014602  0.08667676  0.29291374     0.87600
O43         O  0.41404720  0.02312467  0.42521191    -0.74700
O44         O  0.32905113  0.03169839  0.41389290    -0.74700
O45         O  0.35828495  0.01787962  0.44836143    -0.74800
O46         O  0.38871320  0.04256093  0.39053873    -0.74800
O47         O  0.35839664  0.98533657  0.38030143    -0.74800
O48         O  0.31899622  0.44726626  0.44050942    -0.74700
O49         O  0.28813950  0.45822135  0.40488123    -0.74700
O50         O  0.37613446  0.46109890  0.41577276    -0.74800
Ni51       Ni  0.37357935  0.03096494  0.41967433     1.25400
Ni52       Ni  0.33195261  0.45869964  0.40996706     1.25400
C53         C  0.41097647  0.99193034  0.42242956     0.87500
C54         C  0.29968664  0.00293884  0.40853847     0.87400
C55         C  0.33897016  0.98542063  0.45429213     0.87500
C56         C  0.38014247  0.01878649  0.37595657     0.87600
O57         O  0.08628118  0.03565577  0.58416089    -0.74700
O58         O  0.17499885  0.03412186  0.59404352    -0.74700
O59         O  0.13332658  0.02690015  0.55968344    -0.74800
O60         O  0.12964568  0.04796354  0.61843234    -0.74800
O61         O  0.09668388  0.99002451  0.62684382    -0.74800
O62         O  0.07771662  0.44981356  0.56469475    -0.74700
O63         O  0.12159111  0.46718711  0.59939598    -0.74700
O64         O  0.03278274  0.46201728  0.58888584    -0.74800
Ni65       Ni  0.13235898  0.03825995  0.58893425     1.25400
Ni66       Ni  0.07660804  0.46372023  0.59456818     1.25400
C67         C  0.05638677  0.00572178  0.58595860     0.87500
C68         C  0.17232715  0.00358191  0.59864506     0.87400
C69         C  0.11778563  0.99481930  0.55275169     0.87500
C70         C  0.11092741  0.02345818  0.63211115     0.87600
O71         O  0.08975902  0.04841458  0.76326415    -0.74700
O72         O  0.17574667  0.14075033  0.75148862    -0.74700
O73         O  0.13708477  0.10499506  0.78710372    -0.74800
O74         O  0.13059507  0.08107251  0.72817145    -0.74800
O75         O  0.09493424  0.10359973  0.72142645    -0.74800
O76         O  0.10387512  0.13097624  0.78255640    -0.74700
O77         O  0.14001707  0.16341825  0.74538324    -0.74700
O78         O  0.05718985  0.07500969  0.75836562    -0.74800
Ni79       Ni  0.13465951  0.09311631  0.75766885     1.25400
Ni80       Ni  0.09798625  0.11937221  0.75163728     1.25400
C81         C  0.05914059  0.04716701  0.76269525     0.87500
C82         C  0.17139343  0.16761680  0.74683340     0.87400
C83         C  0.12108656  0.12050574  0.79492560     0.87500
C84         C  0.11045782  0.08596340  0.71526415     0.87600
O85         O  0.36452500  0.44436478  0.58301450    -0.74700
O86         O  0.27421499  0.44379125  0.59149448    -0.74700
O87         O  0.31405894  0.44480934  0.55697869    -0.74800
O88         O  0.32315770  0.43836228  0.61742972    -0.74800
O89         O  0.35561548  0.49790158  0.62055692    -0.74800
O90         O  0.34224423  0.50460238  0.55849606    -0.74700
O91         O  0.30603606  0.50311682  0.59501289    -0.74700
O92         O  0.39233449  0.50391945  0.58415996    -0.74800
Ni93       Ni  0.31771541  0.44065017  0.58720338     1.25400
Ni94       Ni  0.34988013  0.50447862  0.58969516     1.25400
C95         C  0.39364988  0.47519240  0.58234037     0.87500
C96         C  0.27576555  0.47433004  0.59415491     0.87400
C97         C  0.32703533  0.47510489  0.54758707     0.87500
C98         C  0.34242085  0.46615043  0.62875111     0.87600
O99         O  0.37853901  0.42911127  0.75913520    -0.74700
O100        O  0.28817466  0.34300450  0.74653322    -0.74700
O101        O  0.33192645  0.36917190  0.78057897    -0.74800
O102        O  0.33303818  0.40587892  0.72506960    -0.74800
O103        O  0.36406317  0.38185634  0.71141162    -0.74800
O104        O  0.36119971  0.34196163  0.76887086    -0.74700
O105        O  0.31885837  0.31848027  0.73319347    -0.74700
O106        O  0.40721471  0.40165623  0.74676242    -0.74800
Ni107      Ni  0.33181455  0.38768863  0.75311337     1.25400
Ni108      Ni  0.36375680  0.35994084  0.73943720     1.25400
C109        C  0.40788669  0.42890868  0.75528110     0.87500
C110        C  0.28902829  0.31545374  0.73911161     0.87400
C111        C  0.34641062  0.35023185  0.78432318     0.87500
C112        C  0.34954619  0.40169942  0.70920564     0.87600
O113        O  0.43570811  0.38810805  0.90901764    -0.74700
O114        O  0.34475387  0.30067039  0.92051224    -0.74700
O115        O  0.38003397  0.33860085  0.88480272    -0.74800
O116        O  0.40294458  0.34803486  0.94427220    -0.74800
O117        O  0.37866532  0.38256007  0.94948073    -0.74800
O118        O  0.35149840  0.36945967  0.88856873    -0.74700
O119        O  0.32029973  0.33500110  0.92589486    -0.74700
O120        O  0.40711232  0.41908007  0.91221522    -0.74800
Ni121      Ni  0.39173990  0.34260320  0.91449251     1.25400
Ni122      Ni  0.36336069  0.37759151  0.91924031     1.25400
C123        C  0.43585555  0.41819628  0.90911861     0.87500
C124        C  0.31717619  0.30403270  0.92469767     0.87400
C125        C  0.36201901  0.35182866  0.87667159     0.87500
C126        C  0.39645498  0.36781325  0.95659553     0.87600
O127        O  0.43093646  0.39254172  0.09100746    -0.74700
O128        O  0.43167328  0.30386413  0.08010064    -0.74700
O129        O  0.43528200  0.34254113  0.11521727    -0.74800
O130        O  0.42246463  0.35196915  0.05585489    -0.74800
O131        O  0.48142159  0.38452612  0.05032252    -0.74800
O132        O  0.49475751  0.37283461  0.11171796    -0.74700
O133        O  0.49059972  0.33682471  0.07487757    -0.74700
O134        O  0.49032847  0.42223070  0.08698337    -0.74800
Ni135      Ni  0.42796684  0.34652599  0.08563413     1.25400
Ni136      Ni  0.49139856  0.38009648  0.08074485     1.25400
C137        C  0.46127494  0.42218146  0.09074465     0.87500
C138        C  0.46229880  0.30625695  0.07635966     0.87400
C139        C  0.46631484  0.35608354  0.12357674     0.87500
C140        C  0.44890502  0.37065772  0.04334077     0.87600
O141        O  0.05256690  0.09604500  0.91963792    -0.74700
O142        O  0.14174364  0.18631207  0.92789849    -0.74700
O143        O  0.10790449  0.14253846  0.89449871    -0.74800
O144        O  0.08326583  0.14183592  0.95300900    -0.74800
O145        O  0.11019206  0.11126080  0.96281011    -0.74800
O146        O  0.13571513  0.11188213  0.90198472    -0.74700
O147        O  0.16797551  0.15484259  0.93671275    -0.74700
O148        O  0.08170017  0.06743080  0.92848364    -0.74800
Ni149      Ni  0.09549442  0.14288764  0.92359255     1.25400
Ni150      Ni  0.12509256  0.11048546  0.93290928     1.25400
C151        C  0.05296643  0.06652277  0.92254709     0.87500
C152        C  0.17024314  0.18495178  0.93262734     0.87400
C153        C  0.12482980  0.12703420  0.88824181     0.87500
C154        C  0.09036469  0.12506828  0.96735761     0.87600
O155        O  0.02319475  0.09572940  0.09715384    -0.74700
O156        O  0.02457155  0.18608699  0.08581519    -0.74700
O157        O  0.01097463  0.14222454  0.12009880    -0.74800
O158        O  0.04223353  0.14195617  0.06324942    -0.74800
O159        O  0.47431458  0.11024961  0.04673444    -0.74800
O160        O  0.44335246  0.11200330  0.10576805    -0.74700
O161        O  0.45832422  0.15429091  0.07025717    -0.74700
O162        O  0.45518372  0.06692262  0.08167608    -0.74800
Ni163      Ni  0.02732977  0.14273850  0.09187370     1.25400
Ni164      Ni  0.45579858  0.10995555  0.07563634     1.25400
C165        C  0.99363867  0.06614798  0.09339759     0.87500
C166        C  0.99513565  0.18406253  0.07916573     0.87400
C167        C  0.46793587  0.12744079  0.12027496     0.87500
C168        C  0.02035233  0.12506705  0.04801738     0.87600
C169        C  0.03602881  0.11119755  0.98838888    -0.20600
C170        C  0.07244744  0.12053505  0.98865707    -0.07100
C171        C  0.09085475  0.12950012  0.00849650     0.13700
C172        C  0.07269860  0.12988305  0.02740728    -0.20600
C173        C  0.03645079  0.12187315  0.02712936    -0.07100
C174        C  0.01779721  0.11167453  0.00722856     0.13700
C175        C  0.97918602  0.10233345  0.00541372    -0.24000
H176        H  0.02185890  0.10424375  0.97304264     0.15000
H177        H  0.08741231  0.13712887  0.04253976     0.15000
C178        C  0.12993984  0.14031457  0.00960786    -0.23900
H179        H  0.96937015  0.09610111  0.98844973     0.05300
H180        H  0.97628191  0.12531790  0.01090633     0.08500
H181        H  0.45756564  0.11494938  0.00644058     0.08500
H182        H  0.14593212  0.16404872  0.99905412     0.08500
H183        H  0.13354219  0.11776871  0.00409846     0.08500
H184        H  0.14054508  0.14742983  0.02637372     0.05200
C185        C  0.50154785  0.27963936  0.07988684    -0.20600
C186        C  0.46728261  0.27444475  0.07479284    -0.07100
C187        C  0.94747450  0.23864773  0.08013588     0.13700
C188        C  0.95555937  0.21076749  0.08195851    -0.20600
C189        C  0.48209301  0.21690491  0.07315530    -0.07100
C190        C  0.50931353  0.25161783  0.07925459     0.13700
C191        C  0.54649449  0.25969879  0.08545613    -0.24000
H192        H  0.52255737  0.30593032  0.08497330     0.15000
H193        H  0.93475612  0.18465163  0.08755605     0.15000
C194        C  0.91045299  0.23103621  0.08636894    -0.23900
H195        H  0.56442414  0.28858198  0.08915837     0.05300
H196        H  0.55880401  0.25273469  0.07185238     0.08500
H197        H  0.54521811  0.24427932  0.10020479     0.08500
H198        H  0.89758685  0.23627850  0.07233560     0.08500
H199        H  0.91215015  0.24818384  0.10026617     0.08500
H200        H  0.89287771  0.20263481  0.09137171     0.05200
C201        C  0.44248474  0.99938647  0.08894183    -0.20600
C202        C  0.47686889  0.02918590  0.09320659    -0.07100
C203        C  0.01334167  0.02210454  0.10734088     0.13700
C204        C  0.01854359  0.49178240  0.08896487    -0.20600
C205        C  0.46451181  0.45785221  0.09377133    -0.07100
C206        C  0.43931799  0.46617761  0.08516717     0.13700
C207        C  0.40437803  0.43781776  0.07549548    -0.24000
H208        H  0.42064066  0.00363392  0.08426918     0.15000
H209        H  0.04002920  0.48606437  0.08617847     0.15000
C210        C  0.04647131  0.05129115  0.11813162    -0.23900
H211        H  0.38830455  0.44937133  0.06893561     0.05300
H212        H  0.38794912  0.41784805  0.08810857     0.08500
H213        H  0.40978485  0.42421215  0.06194964     0.08500
H214        H  0.03873352  0.06489093  0.13052885     0.08500
H215        H  0.06437561  0.07108702  0.10586594     0.08500
H216        H  0.06193937  0.04043027  0.12641620     0.05200
C217        C  0.25159032  0.27691238  0.91944530    -0.20600
C218        C  0.28015070  0.27285632  0.92723936    -0.07100
C219        C  0.27210312  0.24083792  0.93807546     0.13700
C220        C  0.23595603  0.21374681  0.94055402    -0.20600
C221        C  0.20721264  0.21732465  0.93224483    -0.07100
C222        C  0.21551022  0.24979155  0.92164141     0.13700
C223        C  0.18693514  0.25605962  0.91200079    -0.24000
H224        H  0.25761698  0.30154641  0.91113903     0.15000
H225        H  0.23026191  0.18919010  0.94880199     0.15000
C226        C  0.30131430  0.23536538  0.94745507    -0.23900
H227        H  0.19850203  0.28296927  0.90431073     0.05300
H228        H  0.16818023  0.25447465  0.92490239     0.08500
H229        H  0.17205104  0.23576326  0.89927629     0.08500
H230        H  0.31743293  0.25709980  0.95918128     0.08500
H231        H  0.31899785  0.23556234  0.93427898     0.08500
H232        H  0.29020258  0.20928468  0.95611859     0.05200
C233        C  0.46922383  0.48048559  0.89461493    -0.20600
C234        C  0.46919340  0.45349411  0.90764564    -0.07100
C235        C  0.49668728  0.46326036  0.92299946     0.13700
C236        C  0.52260493  0.01443604  0.90514703    -0.20600
C237        C  0.02080164  0.03006654  0.91942177    -0.07100
C238        C  0.98600413  0.02400995  0.91511711     0.13700
C239        C  0.97841885  0.05437798  0.91218092    -0.24000
H240        H  0.94507752  0.47584823  0.88771337     0.15000
H241        H  0.54933958  0.02098386  0.90010774     0.15000
C242        C  0.49698237  0.43604226  0.93823321    -0.23900
H243        H  0.96670819  0.53557252  0.87907381     0.05300
H244        H  0.99390143  0.07124180  0.89814546     0.08500
H245        H  0.98574964  0.07090038  0.92712492     0.08500
H246        H  0.49862197  0.41488614  0.92888790     0.08500
H247        H  0.47206780  0.42387307  0.94804679     0.08500
H248        H  0.52008755  0.44831560  0.94956129     0.05200
C249        C  0.44391030  0.37316909  0.98180509    -0.20600
C250        C  0.41156637  0.37366104  0.97891295    -0.07100
C251        C  0.39377425  0.37650097  0.99733780     0.13700
C252        C  0.40807387  0.37759323  0.01799338    -0.20600
C253        C  0.43974087  0.37586222  0.02088512    -0.07100
C254        C  0.45835112  0.37456292  0.00244508     0.13700
C255        C  0.49226093  0.37269886  0.00440693    -0.24000
H256        H  0.45765459  0.37065764  0.96776459     0.15000
H257        H  0.39361371  0.37857874  0.03213623     0.15000
C258        C  0.35869802  0.37613538  0.99549745    -0.23900
H259        H  0.50275309  0.37079290  0.98829689     0.05300
H260        H  0.48699092  0.34870309  0.01403527     0.08500
H261        H  0.51332806  0.39727692  0.01247850     0.08500
H262        H  0.33859955  0.35125854  0.98717952     0.08500
H263        H  0.36265774  0.39994242  0.98618500     0.08500
H264        H  0.34769690  0.37693873  0.01165719     0.05200
C265        C  0.31939557  0.33891711  0.82089436    -0.20600
C266        C  0.34684117  0.34078668  0.80741738    -0.07100
C267        C  0.37703497  0.34194367  0.81709172     0.13700
C268        C  0.38056223  0.34473808  0.83974729    -0.20600
C269        C  0.35489052  0.34676504  0.85302966    -0.07100
C270        C  0.32313558  0.34221447  0.84350428     0.13700
C271        C  0.29309699  0.34065030  0.85694291    -0.24000
H272        H  0.29562785  0.33700468  0.81354771     0.15000
H273        H  0.40447204  0.34695717  0.84705533     0.15000
C274        C  0.40648388  0.34222759  0.80370785    -0.23900
H275        H  0.26952884  0.33505858  0.84683247     0.05300
H276        H  0.30225649  0.36672829  0.86515398     0.08500
H277        H  0.28417993  0.31893206  0.86923933     0.08500
H278        H  0.41887442  0.36622213  0.79299676     0.08500
H279        H  0.39527545  0.31750782  0.79371970     0.08500
H280        H  0.42801121  0.34304847  0.81402313     0.05200
C281        C  0.32295846  0.42876143  0.68522878    -0.20600
C282        C  0.35075475  0.42089276  0.68861142    -0.07100
C283        C  0.37948485  0.43452402  0.67351731     0.13700
C284        C  0.37821588  0.45319099  0.65492421    -0.20600
C285        C  0.34937790  0.45925713  0.65123769    -0.07100
C286        C  0.32192384  0.44751838  0.66685743     0.13700
C287        C  0.29075534  0.45378237  0.66372002    -0.24000
H288        H  0.30115029  0.41937214  0.69682838     0.15000
H289        H  0.39891783  0.46148037  0.64262962     0.15000
C290        C  0.41155571  0.42986914  0.67693423    -0.23900
H291        H  0.27169306  0.44335932  0.67757968     0.05300
H292        H  0.27583250  0.44007447  0.64880250     0.08500
H293        H  0.30084642  0.48302320  0.66218961     0.08500
H294        H  0.40312655  0.40091884  0.67680008     0.08500
H295        H  0.42435502  0.44180839  0.69270878     0.08500
H296        H  0.43200332  0.44330909  0.66398073     0.05200
C297        C  0.13591521  0.15688601  0.85246046    -0.20600
C298        C  0.12932294  0.12621190  0.86450528    -0.07100
C299        C  0.11937536  0.09393944  0.85346110     0.13700
C300        C  0.11614270  0.09312943  0.83080565    -0.20600
C301        C  0.12192373  0.12352866  0.81882890    -0.07100
C302        C  0.13228522  0.15591255  0.82977285     0.13700
C303        C  0.14015323  0.18944943  0.81760334    -0.24000
H304        H  0.14299780  0.18157090  0.86097506     0.15000
H305        H  0.10850721  0.06828306  0.82232170     0.15000
C306        C  0.11033311  0.05989242  0.86548913    -0.23900
H307        H  0.14870963  0.21265660  0.82867302     0.05300
H308        H  0.11571948  0.18510641  0.80893901     0.08500
H309        H  0.16203375  0.19636229  0.80567559     0.08500
H310        H  0.08770593  0.05279124  0.87686924     0.08500
H311        H  0.13410441  0.06367555  0.87470529     0.08500
H312        H  0.10223909  0.03693557  0.85427672     0.05200
C313        C  0.49363042  0.03342221  0.75578382    -0.20600
C314        C  0.02440298  0.01357313  0.76567281    -0.07100
C315        C  0.02618947  0.48674143  0.75025316     0.13700
C316        C  0.47193881  0.45431586  0.76583975    -0.20600
C317        C  0.44373032  0.46032701  0.75977536    -0.07100
C318        C  0.45827811  0.00459049  0.75513024     0.13700
C319        C  0.42869814  0.01121538  0.74774061    -0.24000
H320        H  0.00491569  0.03800790  0.78834662     0.15000
H321        H  0.46579915  0.42720959  0.76963775     0.15000
C322        C  0.05533752  0.48024977  0.74180454    -0.23900
H323        H  0.43892520  0.03991771  0.74376705     0.05300
H324        H  0.40837095  0.00354769  0.76080347     0.08500
H325        H  0.41580955  0.99526206  0.73294551     0.08500
H326        H  0.07405616  0.48357515  0.75513450     0.08500
H327        H  0.07022103  0.49945653  0.72853182     0.08500
H328        H  0.04434462  0.45270178  0.73523764     0.05200
C329        C  0.19812021  0.23301765  0.75300348    -0.20600
C330        C  0.20189676  0.20501509  0.74400415    -0.07100
C331        C  0.23262949  0.21392133  0.73145378     0.13700
C332        C  0.25934149  0.25030334  0.72904598    -0.20600
C333        C  0.25647473  0.27847295  0.73893282    -0.07100
C334        C  0.22474515  0.26934206  0.75077117     0.13700
C335        C  0.21871665  0.29723969  0.76167389    -0.24000
H336        H  0.17416870  0.22629485  0.76232579     0.15000
H337        H  0.28311438  0.25660838  0.71968300     0.15000
C338        C  0.23693047  0.18530697  0.72013982    -0.23900
H339        H  0.19213010  0.28510487  0.76981614     0.05300
H340        H  0.21967233  0.31665736  0.74943590     0.08500
H341        H  0.23943412  0.31146478  0.77428663     0.08500
H342        H  0.21387365  0.16982360  0.70910516     0.08500
H343        H  0.23813107  0.16686981  0.73227263     0.08500
H344        H  0.26193629  0.19697191  0.71032008     0.05200
C345        C  0.47314796  0.45985251  0.57366817    -0.20600
C346        C  0.02077414  0.00257628  0.58283726    -0.07100
C347        C  0.01275949  0.02826320  0.59095716     0.13700
C348        C  0.47900437  0.02338610  0.58884612    -0.20600
C349        C  0.43034132  0.47989604  0.58033485    -0.07100
C350        C  0.43741471  0.45249806  0.57406544     0.13700
C351        C  0.40783058  0.41558515  0.56788034    -0.24000
H352        H  0.97024653  0.42412547  0.58122065     0.15000
H353        H  0.47275450  0.04259982  0.59599868     0.15000
C354        C  0.04142875  0.06348361  0.60014471    -0.23900
H355        H  0.41854073  0.39803103  0.56269402     0.05300
H356        H  0.39220196  0.41758131  0.55417840     0.08500
H357        H  0.38988194  0.40250619  0.58198553     0.08500
H358        H  0.06131652  0.07927118  0.58734658     0.08500
H359        H  0.05506576  0.05842300  0.61381390     0.08500
H360        H  0.03017291  0.08001435  0.60638457     0.05200
C361        C  0.19956974  0.96634674  0.58905392    -0.20600
C362        C  0.20380082  0.99791469  0.59876888    -0.07100
C363        C  0.21880602  0.51905178  0.58903422     0.13700
C364        C  0.24742340  0.51202311  0.58882465    -0.20600
C365        C  0.24329100  0.47858433  0.59522147    -0.07100
C366        C  0.22760035  0.95840800  0.58831600     0.13700
C367        C  0.22163952  0.92528660  0.57645985    -0.24000
H368        H  0.17421533  0.94805091  0.58142407     0.15000
H369        H  0.27336773  0.53294688  0.58310131     0.15000
C370        C  0.22582005  0.55535003  0.58148245    -0.23900
H371        H  0.19422115  0.91014344  0.56951384     0.05300
H372        H  0.22493835  0.90709462  0.58780289     0.08500
H373        H  0.24112278  0.93294767  0.56288432     0.08500
H374        H  0.21906279  0.56859398  0.59462410     0.08500
H375        H  0.20959142  0.55234950  0.56684009     0.08500
H376        H  0.25443399  0.57335951  0.57710063     0.05200
C377        C  0.10383602  0.03510432  0.69291461    -0.20600
C378        C  0.10492309  0.06849563  0.69365235    -0.07100
C379        C  0.10488456  0.08510178  0.67399942     0.13700
C380        C  0.10535502  0.06876295  0.65431783    -0.20600
C381        C  0.10545740  0.03589963  0.65362616    -0.07100
C382        C  0.10330685  0.01828409  0.67328940     0.13700
C383        C  0.10213911  0.98271754  0.67381403    -0.24000
H384        H  0.10459809  0.02242503  0.70792947     0.15000
H385        H  0.10662365  0.08239206  0.63927100     0.15000
C386        C  0.10657204  0.12090752  0.67366983    -0.23900
H387        H  0.11558459  0.48322905  0.68238713     0.05300
H388        H  0.12628301  0.98516473  0.66566171     0.08500
H389        H  0.08131688  0.46414996  0.66211018     0.08500
H390        H  0.13101818  0.14116526  0.68226838     0.08500
H391        H  0.08242743  0.11856523  0.68174570     0.08500
H392        H  0.10752470  0.13063991  0.65685475     0.05200
C393        C  0.34734271  0.46322759  0.51288526    -0.20600
C394        C  0.32598232  0.47452909  0.52367629    -0.07100
C395        C  0.30086338  0.47948538  0.51176805     0.13700
C396        C  0.29944912  0.47540340  0.48905949    -0.20600
C397        C  0.32184729  0.46540966  0.47813754    -0.07100
C398        C  0.34589795  0.45901814  0.49027166     0.13700
C399        C  0.37145990  0.44969810  0.47927486    -0.24000
H400        H  0.36574065  0.45822568  0.52223742     0.15000
H401        H  0.28164152  0.48119491  0.47968089     0.15000
C402        C  0.27551493  0.48874354  0.52304928    -0.23900
H403        H  0.38832390  0.44540178  0.49116496     0.05300
H404        H  0.38963375  0.47190984  0.46831307     0.08500
H405        H  0.31778169  0.90849122  0.46827570     0.08500
H406        H  0.29100261  0.51451370  0.53185656     0.08500
H407        H  0.30921882  0.02575071  0.53660087     0.08500
H408        H  0.25740796  0.49151490  0.51138024     0.05200
C409        C  0.43277459  0.06004022  0.35308047    -0.20600
C410        C  0.39671432  0.03180233  0.35418015    -0.07100
C411        C  0.37665824  0.02038355  0.33494569     0.13700
C412        C  0.39236719  0.03839651  0.31547224    -0.20600
C413        C  0.42791634  0.06782663  0.31436176    -0.07100
C414        C  0.44871003  0.07793232  0.33343659     0.13700
C415        C  0.48701388  0.10816823  0.33341681    -0.24000
H416        H  0.43138318  0.56922655  0.36981191     0.15000
H417        H  0.37618009  0.02950789  0.30092062     0.15000
C418        C  0.33809446  0.99054026  0.33498874    -0.23900
H419        H  0.47912978  0.61842261  0.35309758     0.05300
H420        H  0.48828107  0.13326961  0.32771053     0.08500
H421        H  0.50341501  0.10144455  0.32257914     0.08500
H422        H  0.32199144  0.99744294  0.34598324     0.08500
H423        H  0.33645338  0.96520272  0.34052645     0.08500
H424        H  0.32600304  0.98580150  0.31857246     0.05200
C425        C  0.99095411  0.15475225  0.16100968    -0.20600
C426        C  0.46010547  0.12660730  0.14358976    -0.07100
C427        C  0.43942774  0.09374134  0.15452214     0.13700
C428        C  0.44184829  0.09279966  0.17714007    -0.20600
C429        C  0.46462796  0.12378058  0.18915901    -0.07100
C430        C  0.99228376  0.15270076  0.18371638     0.13700
C431        C  0.01454894  0.18630946  0.19667051    -0.24000
H432        H  0.00752087  0.18033019  0.15300606     0.15000
H433        H  0.42622547  0.06741877  0.18555355     0.15000
C434        C  0.41641980  0.05931744  0.14237490    -0.23900
H435        H  0.02803597  0.21043484  0.18609492     0.05300
H436        H  0.03558967  0.18400981  0.20571191     0.08500
H437        H  0.99716498  0.19031659  0.20832369     0.08500
H438        H  0.43330825  0.05375546  0.13120482     0.08500
H439        H  0.39575012  0.06163231  0.13290746     0.08500
H440        H  0.40238932  0.03601741  0.15352941     0.05200
C441        C  0.08794304  0.96203815  0.49516811    -0.20600
C442        C  0.09142907  0.46189432  0.48088858    -0.07100
C443        C  0.12263082  0.48784168  0.49143237     0.13700
C444        C  0.12318329  0.48868624  0.51416416    -0.20600
C445        C  0.11743452  0.99053731  0.52878661    -0.07100
C446        C  0.08969688  0.96094538  0.51783524     0.13700
C447        C  0.06093268  0.92871366  0.52977243    -0.24000
H448        H  0.06613532  0.93931377  0.48704084     0.15000
H449        H  0.14685269  0.50929027  0.52230752     0.15000
C450        C  0.15536451  0.51433021  0.47888818    -0.23900
H451        H  0.04109408  0.90835780  0.51851661     0.05300
H452        H  0.04611691  0.93708706  0.54086004     0.08500
H453        H  0.07325514  0.91563437  0.53916869     0.08500
H454        H  0.14901002  0.53195004  0.46895705     0.08500
H455        H  0.16447068  0.49974961  0.46813378     0.08500
H456        H  0.17790166  0.53177290  0.48981642     0.05200
C457        C  0.20144923  0.49766219  0.41103789    -0.20600
C458        C  0.17293211  0.46223772  0.40778129    -0.07100
C459        C  0.19838298  0.96115831  0.40057414     0.13700
C460        C  0.23425279  0.96879119  0.39901677    -0.20600
C461        C  0.26341761  0.00033095  0.40785081    -0.07100
C462        C  0.23776667  0.50656780  0.41085731     0.13700
C463        C  0.26613502  0.54501528  0.41493772    -0.24000
H464        H  0.19533079  0.51873914  0.41437079     0.15000
H465        H  0.23933094  0.94929601  0.39110511     0.15000
C466        C  0.16885715  0.92704894  0.39084617    -0.23900
H467        H  0.25438886  0.56269602  0.41689460     0.05300
H468        H  0.28507332  0.55540669  0.40102265     0.08500
H469        H  0.28085055  0.54685511  0.43008357     0.08500
H470        H  0.15413084  0.93352337  0.37854711     0.08500
H471        H  0.14997835  0.90998526  0.40374464     0.08500
H472        H  0.17950809  0.91123096  0.38277358     0.05200
C473        C  0.50048030  0.51090424  0.42326848    -0.20600
C474        C  0.98082313  0.44776638  0.42920918    -0.07100
C475        C  0.97115301  0.96045851  0.43473383     0.13700
C476        C  0.43828502  0.95397638  0.41554336    -0.20600
C477        C  0.44040231  0.98380655  0.42651109    -0.07100
C478        C  0.47118878  0.51671715  0.42309886     0.13700
C479        C  0.47762162  0.55378587  0.41803962    -0.24000
H480        H  0.52676712  0.53366875  0.41992014     0.15000
H481        H  0.91627680  0.94601831  0.44051715     0.15000
C482        C  0.96413921  0.92351568  0.44067430    -0.23900
H483        H  0.50647864  0.57326655  0.41518098     0.05300
H484        H  0.46864333  0.56382827  0.43188084     0.08500
H485        H  0.46273883  0.55303937  0.40317485     0.08500
H486        H  0.98193772  0.92536501  0.45422436     0.08500
H487        H  0.96895819  0.91079884  0.42639737     0.08500
H488        H  0.93596639  0.90569159  0.44599495     0.05200
C489        C  0.44919441  0.24966775  0.27219592    -0.20600
C490        C  0.48225767  0.27834590  0.26449734    -0.07100
C491        C  0.00066196  0.26231750  0.26436775     0.13700
C492        C  0.99287368  0.22649651  0.26566569    -0.20600
C493        C  0.46517861  0.20508241  0.26147753    -0.07100
C494        C  0.44023804  0.21345769  0.27056841     0.13700
C495        C  0.40439939  0.18450176  0.27891541    -0.24000
H496        H  0.42945596  0.25537406  0.27912914     0.15000
H497        H  0.01468825  0.22186782  0.26974114     0.15000
C498        C  0.03840678  0.29199040  0.26885144    -0.23900
H499        H  0.38869928  0.19586020  0.28630969     0.05300
H500        H  0.40839291  0.16831640  0.29147729     0.08500
H501        H  0.38833368  0.16683584  0.26537298     0.08500
H502        H  0.03834581  0.30879190  0.28247879     0.08500
H503        H  0.04990921  0.30880409  0.25412075     0.08500
H504        H  0.05631374  0.28136793  0.27338272     0.05200
C505        C  0.49126764  0.52160368  0.23932118    -0.20600
C506        C  0.45608243  0.01490159  0.24545112    -0.07100
C507        C  0.96198975  0.99483757  0.23314231     0.13700
C508        C  0.97530533  0.97084240  0.23216689    -0.20600
C509        C  0.47245294  0.45837256  0.24246135    -0.07100
C510        C  0.50009440  0.49427213  0.23978857     0.13700
C511        C  0.53900841  0.50444268  0.23829496    -0.24000
H512        H  0.51293604  0.54910359  0.23774353     0.15000
H513        H  0.96917822  0.95339218  0.21824595     0.15000
C514        C  0.94259841  0.99873798  0.21398177    -0.23900
H515        H  0.55687788  0.53383062  0.23615359     0.05300
H516        H  0.54310710  0.49095817  0.22414935     0.08500
H517        H  0.54726203  0.49653024  0.25341441     0.08500
H518        H  0.95733663  0.02684914  0.20797624     0.08500
H519        H  0.91502806  0.99185780  0.21881984     0.08500
H520        H  0.94057425  0.98081433  0.20045221     0.05200
C521        C  0.00564604  0.38874192  0.35396413    -0.20600
C522        C  0.03436118  0.42448126  0.35610419    -0.07100
C523        C  0.04447182  0.44731770  0.33780529     0.13700
C524        C  0.02743746  0.43321765  0.31785334    -0.20600
C525        C  0.00051679  0.39695259  0.31556989    -0.07100
C526        C  0.98887627  0.37471378  0.33396658     0.13700
C527        C  0.96035611  0.33577051  0.33230251    -0.24000
H528        H  0.99673470  0.37110006  0.36795925     0.15000
H529        H  0.56977601  0.45529009  0.30116589     0.15000
C530        C  0.60956091  0.49268658  0.33538580    -0.23900
H531        H  0.95482418  0.32191039  0.34823796     0.05300
H532        H  0.96914078  0.32175888  0.32085275     0.08500
H533        H  0.93502008  0.33361341  0.32635997     0.08500
H534        H  0.09937462  0.48738945  0.34417038     0.08500
H535        H  0.61234347  0.51804273  0.34181592     0.08500
H536        H  0.62123439  0.49806721  0.31880087     0.05200
C537        C  0.49111167  0.34414366  0.18110062    -0.20600
C538        C  0.46410364  0.34588538  0.19318978    -0.07100
C539        C  0.95028865  0.32697650  0.17624297     0.13700
C540        C  0.43910129  0.35219376  0.15946897    -0.20600
C541        C  0.46727748  0.35266373  0.14745622    -0.07100
C542        C  0.49317755  0.34771088  0.15840639     0.13700
C543        C  0.52272039  0.34590759  0.14637161    -0.24000
H544        H  0.51176337  0.34160058  0.18960341     0.15000
H545        H  0.93349161  0.30564527  0.14421777     0.15000
C546        C  0.91855296  0.29563349  0.18691434    -0.23900
H547        H  0.53976565  0.34049950  0.15748377     0.05300
H548        H  0.54028841  0.37185385  0.13808925     0.08500
H549        H  0.51097356  0.32401222  0.13419711     0.08500
H550        H  0.90175446  0.30490940  0.19520334     0.08500
H551        H  0.92797372  0.28289396  0.19890185     0.08500
H552        H  0.90135574  0.27489360  0.17492490     0.05200
O553        O  0.02884214  0.93620320  0.24987128    -0.74700
O554        O  0.02605835  0.84492315  0.25836978    -0.74700
O555        O  0.02119254  0.88176997  0.22452051    -0.74800
O556        O  0.03935012  0.90240924  0.28337942    -0.74800
O557        O  0.46172200  0.86824829  0.29237251    -0.74800
O558        O  0.44756668  0.84896046  0.23013726    -0.74700
O559        O  0.45202445  0.81335974  0.26540800    -0.74700
O560        O  0.45191170  0.89986218  0.25735182    -0.74800
Ni561      Ni  0.03091075  0.89211871  0.25386547     1.25400
Ni562      Ni  0.45124549  0.85642898  0.26155810     1.25400
C563        C  0.99862629  0.93573407  0.25077080     0.87500
C564        C  0.99570497  0.81719359  0.26348414     0.87400
C565        C  0.47584535  0.86213374  0.21798515     0.87500
C566        C  0.01504301  0.89800089  0.29675901     0.87600
O567        O  0.03639859  0.95284481  0.42681086    -0.74700
O568        O  0.12542881  0.95130631  0.41627048    -0.74700
O569        O  0.09119129  0.95807516  0.45113371    -0.74800
O570        O  0.06704208  0.94076792  0.39221315    -0.74800
O571        O  0.09531412  0.99940061  0.38488061    -0.74800
O572        O  0.12015278  0.01721310  0.44622805    -0.74700
O573        O  0.15248080  0.01015732  0.41024077    -0.74700
O574        O  0.06682706  0.01152476  0.42052077    -0.74800
Ni575      Ni  0.07912769  0.94863986  0.42176061     1.25400
Ni576      Ni  0.10986996  0.01165173  0.41516704     1.25400
C577        C  0.03745356  0.98331703  0.42518162     0.87500
C578        C  0.15416275  0.98159050  0.41225938     0.87400
C579        C  0.10846947  0.98960995  0.45884504     0.87500
C580        C  0.07525602  0.96640054  0.37900422     0.87600
O581        O  0.42039372  0.54537400  0.24484348    -0.74700
O582        O  0.42033608  0.63498391  0.25624553    -0.74700
O583        O  0.42862145  0.60201770  0.22134273    -0.74800
O584        O  0.40654631  0.57455372  0.27989996    -0.74800
O585        O  0.46428678  0.60020535  0.28859902    -0.74800
O586        O  0.48731102  0.63005434  0.22790090    -0.74700
O587        O  0.47835008  0.66007149  0.26428445    -0.74700
O588        O  0.47861364  0.57449855  0.25249402    -0.74800
Ni589      Ni  0.41683425  0.58838716  0.25046493     1.25400
Ni590      Ni  0.47914486  0.61734707  0.25872644     1.25400
C591        C  0.45065949  0.54601985  0.24650642     0.87500
C592        C  0.45072761  0.66295688  0.26103735     0.87400
C593        C  0.46080395  0.61930281  0.21454927     0.87500
C594        C  0.43079351  0.58029864  0.29371138     0.87600
O595        O  0.40188029  0.51840428  0.42565826    -0.74700
O596        O  0.31141615  0.51537200  0.41423090    -0.74700
O597        O  0.34320852  0.50518258  0.44897491    -0.74800
O598        O  0.37299674  0.53320285  0.39101031    -0.74800
O599        O  0.34883194  0.47634602  0.38049887    -0.74800
O600        O  0.32749007  0.95962597  0.44038860    -0.74700
O601        O  0.30016604  0.97413174  0.40468868    -0.74700
O602        O  0.38170594  0.96582695  0.41557268    -0.74800
Ni603      Ni  0.35814069  0.52008423  0.42018768     1.25400
Ni604      Ni  0.34076436  0.96925897  0.40980034     1.25400
C605        C  0.40339997  0.48951907  0.42266051     0.87500
C606        C  0.28411765  0.48519636  0.40853867     0.87400
C607        C  0.32743074  0.47235094  0.45460754     0.87500
C608        C  0.36766102  0.51028688  0.37630573     0.87600
O609        O  0.05976161  0.51793660  0.57634792    -0.74700
O610        O  0.15149833  0.52367428  0.58792011    -0.74700
O611        O  0.10713351  0.50694463  0.55393599    -0.74800
O612        O  0.10604048  0.53956175  0.61045191    -0.74800
O613        O  0.07824220  0.48360025  0.62318667    -0.74800
O614        O  0.10203778  0.96816456  0.56606861    -0.74700
O615        O  0.14172083  0.97594721  0.60191032    -0.74700
O616        O  0.05605904  0.97700115  0.59121082    -0.74800
Ni617      Ni  0.10716930  0.52412946  0.58187733     1.25400
Ni618      Ni  0.09823518  0.97571165  0.59690316     1.25400
C619        C  0.03085817  0.48791429  0.58027758     0.87500
C620        C  0.15125353  0.49509540  0.59461995     0.87400
C621        C  0.09262108  0.47367674  0.54966574     0.87500
C622        C  0.09222081  0.51767117  0.62621331     0.87600
O623        O  0.09921269  0.55295604  0.75611441    -0.74700
O624        O  0.18649687  0.64339799  0.74458123    -0.74700
O625        O  0.14852920  0.60744031  0.78030654    -0.74800
O626        O  0.13847787  0.58591221  0.72067282    -0.74800
O627        O  0.10401051  0.61028872  0.71590754    -0.74800
O628        O  0.11784911  0.63632452  0.77715656    -0.74700
O629        O  0.15307251  0.66880203  0.73959361    -0.74700
O630        O  0.06860989  0.58187210  0.75311855    -0.74800
Ni631      Ni  0.14453301  0.59670534  0.75049858     1.25400
Ni632      Ni  0.11001780  0.62561169  0.74623265     1.25400
C633        C  0.06927614  0.55299728  0.75635966     0.87500
C634        C  0.18390128  0.67143422  0.74053923     0.87400
C635        C  0.13403809  0.62393384  0.78889644     0.87500
C636        C  0.11747587  0.59133849  0.70878694     0.87600
O637        O  0.38521448  0.95373312  0.58114910    -0.74700
O638        O  0.29341205  0.94955025  0.59130945    -0.74700
O639        O  0.33336916  0.95417203  0.55622867    -0.74800
O640        O  0.34343183  0.94377326  0.61571416    -0.74800
O641        O  0.37416380  0.00305254  0.62057869    -0.74800
O642        O  0.36008345  0.01361644  0.55905529    -0.74700
O643        O  0.32380205  0.00861940  0.59622489    -0.74700
O644        O  0.41153675  0.01309067  0.58387808    -0.74800
Ni645      Ni  0.33766859  0.94817607  0.58596795     1.25400
Ni646      Ni  0.36821106  0.01171449  0.59009166     1.25400
C647        C  0.41385810  0.98500020  0.58144389     0.87500
C648        C  0.29399949  0.97936492  0.59521604     0.87400
C649        C  0.34497165  0.98477345  0.54749330     0.87500
C650        C  0.36223347  0.97076965  0.62765888     0.87600
O651        O  0.38613621  0.93556875  0.75813332    -0.74700
O652        O  0.29944638  0.84535332  0.74477180    -0.74700
O653        O  0.33952133  0.87585088  0.78019628    -0.74800
O654        O  0.34398060  0.90777364  0.72296964    -0.74800
O655        O  0.37865140  0.88585705  0.71263330    -0.74800
O656        O  0.37331203  0.85169701  0.77190215    -0.74700
O657        O  0.33442846  0.82325393  0.73513403    -0.74700
O658        O  0.41829845  0.91014408  0.74883402    -0.74800
Ni659      Ni  0.34096029  0.89187220  0.75172804     1.25400
Ni660      Ni  0.37711193  0.86661996  0.74165439     1.25400
C661        C  0.41670063  0.93712676  0.75573468     0.87500
C662        C  0.30326613  0.81879527  0.73866081     0.87400
C663        C  0.35626672  0.85987571  0.78591939     0.87500
C664        C  0.36349314  0.90465523  0.70861313     0.87600
O665        O  0.43314046  0.90340367  0.91339453    -0.74700
O666        O  0.34629254  0.80964440  0.92038102    -0.74700
O667        O  0.38259510  0.85366612  0.88701694    -0.74800
O668        O  0.40065593  0.85766096  0.94676128    -0.74800
O669        O  0.37055042  0.88636064  0.95320276    -0.74800
O670        O  0.34884082  0.87908082  0.89122987    -0.74700
O671        O  0.31668816  0.83865630  0.92680075    -0.74700
O672        O  0.39924394  0.92839741  0.91788699    -0.74800
Ni673      Ni  0.39172254  0.85500375  0.91677896     1.25400
Ni674      Ni  0.35758097  0.88395060  0.92252640     1.25400
C675        C  0.42985551  0.93162983  0.91450922     0.87500
C676        C  0.31653055  0.80928869  0.92408772     0.87400
C677        C  0.36333444  0.86545061  0.87899005     0.87500
C678        C  0.39074863  0.87394241  0.95975822     0.87600
O679        O  0.43247865  0.89225785  0.09312936    -0.74700
O680        O  0.43698211  0.80554215  0.08241343    -0.74700
O681        O  0.44282282  0.84577235  0.11720347    -0.74800
O682        O  0.42196086  0.85020513  0.05832071    -0.74800
O683        O  0.47976690  0.88439983  0.05027970    -0.74800
O684        O  0.50157604  0.87873438  0.11103317    -0.74700
O685        O  0.49500159  0.84001064  0.07483985    -0.74700
O686        O  0.49103866  0.92398128  0.08616440    -0.74800
Ni687      Ni  0.43147633  0.84713105  0.08791599     1.25400
Ni688      Ni  0.49392442  0.88275279  0.08021842     1.25400
C689        C  0.46185194  0.92264648  0.09148335     0.87500
C690        C  0.46773803  0.80895195  0.07765336     0.87400
C691        C  0.47489020  0.86180493  0.12418376     0.87500
C692        C  0.44643659  0.86943564  0.04470650     0.87600
O693        O  0.05531123  0.59144736  0.91289533    -0.74700
O694        O  0.14319937  0.68330211  0.92072650    -0.74700
O695        O  0.11075506  0.63796657  0.88780756    -0.74800
O696        O  0.08476016  0.63912168  0.94600836    -0.74800
O697        O  0.11272091  0.61034939  0.95706508    -0.74800
O698        O  0.13997431  0.60918803  0.89659482    -0.74700
O699        O  0.17044336  0.65344127  0.93091391    -0.74700
O700        O  0.08570208  0.56469366  0.92303982    -0.74800
Ni701      Ni  0.09748748  0.63903401  0.91666447     1.25400
Ni702      Ni  0.12829807  0.60850515  0.92736506     1.25400
C703        C  0.05681594  0.56260124  0.91628167     0.87500
C704        C  0.17203912  0.68298583  0.92607974     0.87400
C705        C  0.12922099  0.62369808  0.88230583     0.87500
C706        C  0.09286705  0.62434589  0.96117432     0.87600
O707        O  0.03705042  0.60219633  0.09358919    -0.74700
O708        O  0.04421964  0.69534982  0.08405811    -0.74700
O709        O  0.02922643  0.65029713  0.11795128    -0.74800
O710        O  0.05662919  0.64845890  0.05974534    -0.74800
O711        O  0.48068420  0.61270022  0.04730800    -0.74800
O712        O  0.45122465  0.61637381  0.10660582    -0.74700
O713        O  0.46648160  0.65831101  0.07086740    -0.74700
O714        O  0.46085713  0.57013115  0.08237385    -0.74800
Ni715      Ni  0.04391411  0.65020421  0.08906946     1.25400
Ni716      Ni  0.46288031  0.61361567  0.07633604     1.25400
C717        C  0.00646720  0.57362197  0.09028077     0.87500
C718        C  0.01536426  0.69532108  0.07833714     0.87400
C719        C  0.47590795  0.63026651  0.12120759     0.87500
C720        C  0.03326051  0.63267533  0.04495066     0.87600
C721        C  0.04574229  0.62615046  0.98388174    -0.20600
C722        C  0.07718874  0.62346250  0.98313311    -0.07100
C723        C  0.09284416  0.62215796  0.00298593     0.13700
C724        C  0.07742056  0.62462370  0.02269451    -0.20600
C725        C  0.04645981  0.62814728  0.02332505    -0.07100
C726        C  0.03031289  0.62850903  0.00352079     0.13700
C727        C  0.99768399  0.63283838  0.00282849    -0.24000
H728        H  0.03309241  0.62678809  0.96885502     0.15000
H729        H  0.08985231  0.62395760  0.03781094     0.15000
C730        C  0.12630868  0.61931892  0.00360694    -0.23900
H731        H  0.98965437  0.63438785  0.98593530     0.05300
H732        H  0.00341221  0.65794653  0.01125669     0.08500
H733        H  0.45588566  0.59351182  0.00885753     0.08500
H734        H  0.14829674  0.64225329  0.99470404     0.08500
H735        H  0.12099334  0.59370100  0.99608716     0.08500
H736        H  0.13549920  0.61973469  0.02047711     0.05200
C737        C  0.50860235  0.78363877  0.08056457    -0.20600
C738        C  0.47374920  0.77764723  0.07630466    -0.07100
C739        C  0.01653176  0.78049158  0.06004672     0.13700
C740        C  0.02528895  0.75294982  0.06177087    -0.20600
C741        C  0.48958966  0.72058031  0.07483477    -0.07100
C742        C  0.51680892  0.75576404  0.08012120     0.13700
C743        C  0.55440956  0.76438708  0.08553388    -0.24000
H744        H  0.52966810  0.81040954  0.08482787     0.15000
H745        H  0.04187124  0.75033386  0.04949062     0.15000
C746        C  0.03157793  0.80643222  0.04130607    -0.23900
H747        H  0.57231871  0.79345441  0.08873503     0.05300
H748        H  0.56596991  0.75693342  0.07174820     0.08500
H749        H  0.55412859  0.74956870  0.10035063     0.08500
H750        H  0.04995641  0.83395722  0.04729931     0.08500
H751        H  0.00935966  0.80613716  0.03201005     0.08500
H752        H  0.04719348  0.79931446  0.03003297     0.05200
C753        C  0.44777007  0.50207830  0.08447420    -0.20600
C754        C  0.48109565  0.53055434  0.09181849    -0.07100
C755        C  0.02771449  0.52797172  0.08987964     0.13700
C756        C  0.00693910  0.98661572  0.10782235    -0.20600
C757        C  0.46385657  0.95770600  0.09496113    -0.07100
C758        C  0.43579085  0.96399365  0.08938082     0.13700
C759        C  0.39939777  0.93399921  0.08261915    -0.24000
H760        H  0.42817574  0.50776867  0.07733402     0.15000
H761        H  0.02707341  0.98163265  0.11484281     0.15000
C762        C  0.06630782  0.55656792  0.08632021    -0.23900
H763        H  0.38093851  0.94403782  0.07825614     0.05300
H764        H  0.38690570  0.91459184  0.09616733     0.08500
H765        H  0.40211648  0.92008877  0.06820297     0.08500
H766        H  0.07651765  0.57407033  0.10081704     0.08500
H767        H  0.06848350  0.57290521  0.07182935     0.08500
H768        H  0.08389804  0.54490675  0.08356511     0.05200
C769        C  0.24984798  0.78022341  0.92281616    -0.20600
C770        C  0.28026865  0.77587639  0.92456158    -0.07100
C771        C  0.27450236  0.74070957  0.92663722     0.13700
C772        C  0.23904438  0.71152102  0.92741155    -0.20600
C773        C  0.20862606  0.71599117  0.92586920    -0.07100
C774        C  0.21450660  0.75115059  0.92333792     0.13700
C775        C  0.18399435  0.75869008  0.92123427    -0.24000
H776        H  0.25354755  0.80688339  0.92076221     0.15000
H777        H  0.23524831  0.68475162  0.92897704     0.15000
C778        C  0.30528418  0.73353914  0.92819385    -0.23900
H779        H  0.19367502  0.78789863  0.92006491     0.05300
H780        H  0.16622117  0.74819478  0.93566826     0.08500
H781        H  0.16848641  0.74600044  0.90628992     0.08500
H782        H  0.32228201  0.74789231  0.94236905     0.08500
H783        H  0.32160213  0.74266003  0.91312482     0.08500
H784        H  0.29581494  0.70448905  0.93024418     0.05200
C785        C  0.45452140  0.99754697  0.91868512    -0.20600
C786        C  0.46066376  0.96927049  0.91264267    -0.07100
C787        C  0.49524810  0.97822207  0.90528542     0.13700
C788        C  0.52282326  0.49945047  0.92532245    -0.20600
C789        C  0.02603657  0.52554558  0.91255966    -0.07100
C790        C  0.99586423  0.51770357  0.89967522     0.13700
C791        C  0.99160365  0.54679549  0.88890264    -0.24000
H792        H  0.93066298  0.98447002  0.91103716     0.15000
H793        H  0.54323624  0.50649926  0.93762104     0.15000
C794        C  0.50387926  0.95010607  0.89773822    -0.23900
H795        H  0.94957303  0.04447582  0.90898069     0.05300
H796        H  0.01468712  0.56278615  0.87790805     0.08500
H797        H  0.99002051  0.56451718  0.90138182     0.08500
H798        H  0.48592483  0.93463244  0.88413724     0.08500
H799        H  0.50052401  0.93175188  0.91134127     0.08500
H800        H  0.53200116  0.96221759  0.89188690     0.05200
C801        C  0.44174966  0.88921573  0.98434808    -0.20600
C802        C  0.40517883  0.87871668  0.98213853    -0.07100
C803        C  0.38318593  0.86757185  0.00067217     0.13700
C804        C  0.39789851  0.86584014  0.02071429    -0.20600
C805        C  0.43421169  0.87461589  0.02286791    -0.07100
C806        C  0.45658125  0.88745657  0.00434568     0.13700
C807        C  0.49566556  0.89819926  0.00517175    -0.24000
H808        H  0.45867943  0.89779093  0.97002239     0.15000
H809        H  0.38041881  0.85679955  0.03477061     0.15000
C810        C  0.34388733  0.85574338  0.99916479    -0.23900
H811        H  0.50868853  0.90657806  0.98900051     0.05300
H812        H  0.49845625  0.87518244  0.01078204     0.08500
H813        H  0.51017617  0.92125817  0.01633492     0.08500
H814        H  0.33042299  0.83281909  0.98777578     0.08500
H815        H  0.34064182  0.87832696  0.99323493     0.08500
H816        H  0.33027523  0.84704324  0.01515448     0.05200
C817        C  0.32586544  0.84531566  0.82161861    -0.20600
C818        C  0.35712915  0.85429343  0.80951654    -0.07100
C819        C  0.38991233  0.86674742  0.82050842     0.13700
C820        C  0.39080382  0.87088446  0.84307905    -0.20600
C821        C  0.35988835  0.86327895  0.85508884    -0.07100
C822        C  0.32682771  0.84957863  0.84426551     0.13700
C823        C  0.29261793  0.83889765  0.85650271    -0.24000
H824        H  0.30071943  0.83616907  0.81314403     0.15000
H825        H  0.41615681  0.88078903  0.85145242     0.15000
C826        C  0.42439334  0.87774789  0.80846753    -0.23900
H827        H  0.26903369  0.82776101  0.84553727     0.05300
H828        H  0.29450215  0.86267490  0.86476484     0.08500
H829        H  0.28798152  0.81805741  0.86876283     0.08500
H830        H  0.42992939  0.89982488  0.79699600     0.08500
H831        H  0.42218541  0.85447129  0.79939120     0.08500
H832        H  0.44763548  0.88744859  0.81962591     0.05200
C833        C  0.35641790  0.95020806  0.68739312    -0.20600
C834        C  0.36849997  0.92496433  0.68788039    -0.07100
C835        C  0.38435669  0.92055012  0.66890282     0.13700
C836        C  0.38524981  0.93926202  0.64994247    -0.20600
C837        C  0.37071465  0.96222237  0.64927675    -0.07100
C838        C  0.35696327  0.96843642  0.66835354     0.13700
C839        C  0.34093645  0.99255758  0.66832375    -0.24000
H840        H  0.34524221  0.95507034  0.70187744     0.15000
H841        H  0.39559053  0.93438552  0.63506334     0.15000
C842        C  0.39911149  0.89536734  0.66808314    -0.23900
H843        H  0.33087951  0.99422396  0.68462763     0.05300
H844        H  0.31807256  0.98211944  0.65682962     0.08500
H845        H  0.36159449  0.02005745  0.66328811     0.08500
H846        H  0.37756829  0.86762571  0.67195722     0.08500
H847        H  0.42142510  0.90409693  0.67984917     0.08500
H848        H  0.40985638  0.89493697  0.65176651     0.05200
C849        C  0.14562525  0.65633477  0.84735865    -0.20600
C850        C  0.13653649  0.62443596  0.85879379    -0.07100
C851        C  0.12715931  0.59291100  0.84705062     0.13700
C852        C  0.12680807  0.59400363  0.82428508    -0.20600
C853        C  0.13463958  0.62557232  0.81289440    -0.07100
C854        C  0.14468397  0.65726361  0.82458173     0.13700
C855        C  0.15488957  0.69203802  0.81314392    -0.24000
H856        H  0.15234359  0.68047692  0.85640262     0.15000
H857        H  0.11926925  0.56963762  0.81526905     0.15000
C858        C  0.11547914  0.55771824  0.85841350    -0.23900
H859        H  0.16311090  0.71448897  0.82477404     0.05300
H860        H  0.13169309  0.68934967  0.80376210     0.08500
H861        H  0.17772491  0.69906258  0.80195554     0.08500
H862        H  0.09158960  0.55053831  0.86869239     0.08500
H863        H  0.13761639  0.55997411  0.86873080     0.08500
H864        H  0.10823171  0.53553330  0.84671507     0.05200
C865        C  0.48732202  0.52332323  0.75563257    -0.20600
C866        C  0.03388981  0.51995387  0.75914483    -0.07100
C867        C  0.01476299  0.98374873  0.75225240     0.13700
C868        C  0.48069960  0.96544907  0.76657720    -0.20600
C869        C  0.45165413  0.96991319  0.76019652    -0.07100
C870        C  0.45158778  0.49553643  0.75519407     0.13700
C871        C  0.42282471  0.50389667  0.74853558    -0.24000
H872        H  0.01132611  0.54909117  0.77468883     0.15000
H873        H  0.47573337  0.93878533  0.77050479     0.15000
C874        C  0.04150640  0.98224745  0.73720096    -0.23900
H875        H  0.43403172  0.53282716  0.74478441     0.05300
H876        H  0.40313859  0.49690537  0.76191817     0.08500
H877        H  0.40894237  0.48843249  0.73377874     0.08500
H878        H  0.06409725  0.98358411  0.74661183     0.08500
H879        H  0.05160803  0.00522702  0.72582191     0.08500
H880        H  0.02938449  0.95721363  0.72746218     0.05200
C881        C  0.21079910  0.73592580  0.72945371    -0.20600
C882        C  0.21607764  0.70819912  0.73776014    -0.07100
C883        C  0.25084096  0.71740093  0.74499761     0.13700
C884        C  0.27834272  0.75355122  0.74455050    -0.20600
C885        C  0.27249732  0.78129668  0.73731395    -0.07100
C886        C  0.23839348  0.77216901  0.72920336     0.13700
C887        C  0.23116580  0.80029034  0.71985040    -0.24000
H888        H  0.18458084  0.72939111  0.72344105     0.15000
H889        H  0.30462560  0.76037739  0.75062782     0.15000
C890        C  0.25925853  0.68981344  0.75393231    -0.23900
H891        H  0.20352862  0.78827992  0.71327144     0.05300
H892        H  0.25031706  0.81466729  0.70642758     0.08500
H893        H  0.23415873  0.81975733  0.73259543     0.08500
H894        H  0.25431664  0.66944281  0.74134399     0.08500
H895        H  0.24240026  0.67666906  0.76843920     0.08500
H896        H  0.28776417  0.70201641  0.75894772     0.05200
C897        C  0.49597508  0.97430143  0.57152519    -0.20600
C898        C  0.99399771  0.48119559  0.57514836    -0.07100
C899        C  0.98637272  0.50827133  0.56892620     0.13700
C900        C  0.45974088  0.51426586  0.58516311    -0.20600
C901        C  0.45106810  0.99080549  0.58029025    -0.07100
C902        C  0.45994623  0.96610248  0.57129544     0.13700
C903        C  0.43189682  0.93116449  0.56155443    -0.24000
H904        H  0.99872918  0.94994355  0.56858481     0.15000
H905        H  0.45506129  0.53581152  0.58990006     0.15000
C906        C  0.01551994  0.54658885  0.56522490    -0.23900
H907        H  0.44392490  0.91579022  0.55457219     0.05300
H908        H  0.41763148  0.93647348  0.54835570     0.08500
H909        H  0.41242969  0.91413406  0.57422610     0.08500
H910        H  0.03344677  0.54778102  0.55189487     0.08500
H911        H  0.03122974  0.55770745  0.58032053     0.08500
H912        H  0.00442333  0.56405189  0.56055903     0.05200
C913        C  0.18066214  0.45880044  0.60302964    -0.20600
C914        C  0.18447823  0.49194426  0.59600370    -0.07100
C915        C  0.23669409  0.02146884  0.60876354     0.13700
C916        C  0.26456171  0.01328065  0.60840315    -0.20600
C917        C  0.26092236  0.98231568  0.59797011    -0.07100
C918        C  0.20930668  0.45174025  0.60261997     0.13700
C919        C  0.20300192  0.41583870  0.61042701    -0.24000
H920        H  0.15474482  0.43764410  0.60859588     0.15000
H921        H  0.28980187  0.03180360  0.61604479     0.15000
C922        C  0.24229537  0.05478456  0.62019549    -0.23900
H923        H  0.17516573  0.39858036  0.61647786     0.05300
H924        H  0.22163927  0.41970709  0.62391406     0.08500
H925        H  0.20729610  0.40137918  0.59692316     0.08500
H926        H  0.22176412  0.04738153  0.63312136     0.08500
H927        H  0.24011290  0.07314351  0.60843725     0.08500
H928        H  0.26920056  0.06957551  0.62784143     0.05200
C929        C  0.10926013  0.54023996  0.68612968    -0.20600
C930        C  0.10755671  0.57215369  0.68750487    -0.07100
C931        C  0.09745234  0.58402185  0.66886863     0.13700
C932        C  0.09092953  0.56462060  0.64934572    -0.20600
C933        C  0.09379265  0.53334507  0.64797034    -0.07100
C934        C  0.10264817  0.52087018  0.66677570     0.13700
C935        C  0.10715660  0.48829922  0.66637970    -0.24000
H936        H  0.11648033  0.53045315  0.70032915     0.15000
H937        H  0.08426166  0.57437925  0.63489441     0.15000
C938        C  0.09488810  0.61765214  0.66916011    -0.23900
H939        H  0.10142602  0.97325753  0.69067534     0.05300
H940        H  0.12800974  0.49222517  0.65431198     0.08500
H941        H  0.07761599  0.96211656  0.66546105     0.08500
H942        H  0.12100913  0.64083740  0.67413704     0.08500
H943        H  0.07362465  0.61438670  0.68068516     0.08500
H944        H  0.08800055  0.62371452  0.65294404     0.05200
C945        C  0.34224368  0.95727642  0.51181004    -0.20600
C946        C  0.34108114  0.98482822  0.52357570    -0.07100
C947        C  0.33397532  0.00916096  0.51238844     0.13700
C948        C  0.32966694  0.00614616  0.48976668    -0.20600
C949        C  0.33273769  0.97974943  0.47792307    -0.07100
C950        C  0.33842408  0.95456365  0.48920155     0.13700
C951        C  0.34262209  0.92616959  0.47746148    -0.24000
H952        H  0.34735016  0.93820859  0.52032482     0.15000
H953        H  0.32545134  0.02566579  0.48106970     0.15000
C954        C  0.33065456  0.03805254  0.52410415    -0.23900
H955        H  0.34750015  0.90904949  0.48885535     0.05300
H956        H  0.36576078  0.93899216  0.46610581     0.08500
H957        H  0.35615353  0.42471004  0.46971444     0.08500
H958        H  0.35652322  0.05694495  0.53193961     0.08500
H959        H  0.25868157  0.46724044  0.53482477     0.08500
H960        H  0.32369771  0.05383043  0.51285904     0.05200
C961        C  0.41847806  0.55746565  0.35452738    -0.20600
C962        C  0.38523368  0.52493793  0.35476330    -0.07100
C963        C  0.36920021  0.50955518  0.33473017     0.13700
C964        C  0.38561199  0.52788748  0.31532312    -0.20600
C965        C  0.41800342  0.56129704  0.31511316    -0.07100
C966        C  0.43510314  0.57561091  0.33508390     0.13700
C967        C  0.47002423  0.61058721  0.33612110    -0.24000
H968        H  0.44837826  0.06875614  0.36786905     0.15000
H969        H  0.37256267  0.51613311  0.30006840     0.15000
C970        C  0.33410714  0.47470637  0.33367279    -0.23900
H971        H  0.49898083  0.11310271  0.34987441     0.05300
H972        H  0.46680494  0.63229021  0.32862632     0.08500
H973        H  0.49119975  0.60805437  0.32737024     0.08500
H974        H  0.31312721  0.47717936  0.34272410     0.08500
H975        H  0.33730736  0.45278647  0.34082782     0.08500
H976        H  0.32476935  0.46712686  0.31670877     0.05200
C977        C  0.01539801  0.66264256  0.16029620    -0.20600
C978        C  0.46806050  0.62941138  0.14471802    -0.07100
C979        C  0.44037203  0.59858382  0.15487614     0.13700
C980        C  0.43931362  0.59649755  0.17759418    -0.20600
C981        C  0.46531507  0.62422008  0.19065405    -0.07100
C982        C  0.01284581  0.66069657  0.18309744     0.13700
C983        C  0.04211020  0.68988666  0.19647389    -0.24000
H984        H  0.03908074  0.68459990  0.15287558     0.15000
H985        H  0.41828917  0.57240155  0.18524834     0.15000
C986        C  0.41298090  0.56700857  0.14196517    -0.23900
H987        H  0.06295146  0.71139219  0.18613101     0.05300
H988        H  0.05547860  0.67856578  0.20649697     0.08500
H989        H  0.03053620  0.70228881  0.20716794     0.08500
H990        H  0.42663266  0.55640800  0.13155070     0.08500
H991        H  0.39730070  0.57541169  0.13169540     0.08500
H992        H  0.39377733  0.54479559  0.15261130     0.05200
C993        C  0.06211827  0.43654523  0.49333563    -0.20600
C994        C  0.11284748  0.99199796  0.48284626    -0.07100
C995        C  0.14090755  0.02138317  0.49372564     0.13700
C996        C  0.14304880  0.02007468  0.51642530    -0.20600
C997        C  0.09309912  0.46465280  0.52662356    -0.07100
C998        C  0.06238733  0.43778980  0.51605437     0.13700
C999        C  0.02919254  0.41180171  0.52845613    -0.24000
H1000       H  0.03821783  0.41634573  0.48517375     0.15000
H1001       H  0.16453631  0.04295302  0.52464080     0.15000
C1002       C  0.16873240  0.05402912  0.48167989    -0.23900
H1003       H  0.00738824  0.39313809  0.51747452     0.05300
H1004       H  0.01898906  0.42672284  0.53799854     0.08500
H1005       H  0.03557359  0.39543879  0.53955323     0.08500
H1006       H  0.15574567  0.06742145  0.47332574     0.08500
H1007       H  0.18260108  0.04604480  0.46960935     0.08500
H1008       H  0.18934949  0.07395935  0.49277772     0.05200
C1009       C  0.21993043  0.01782218  0.41915094    -0.20600
C1010       C  0.19089484  0.98589906  0.41086017    -0.07100
C1011       C  0.18167043  0.43527903  0.40341274     0.13700
C1012       C  0.21799945  0.44420383  0.40299634    -0.20600
C1013       C  0.24655987  0.47940499  0.40707543    -0.07100
C1014       C  0.25574641  0.02521742  0.41800586     0.13700
C1015       C  0.28472372  0.05914041  0.42826067    -0.24000
H1016       H  0.21444402  0.03706736  0.42705685     0.15000
H1017       H  0.22391074  0.42293483  0.39988666     0.15000
C1018       C  0.15308524  0.39708045  0.39893322    -0.23900
H1019       H  0.27380572  0.07533621  0.43550322     0.05300
H1020       H  0.30483281  0.07601030  0.41582096     0.08500
H1021       H  0.29794263  0.05240367  0.44142988     0.08500
H1022       H  0.13629314  0.39636295  0.38507757     0.08500
H1023       H  0.13603918  0.38522196  0.41352903     0.08500
H1024       H  0.16479534  0.37998169  0.39472924     0.05200
C1025       C  0.49450787  0.99183638  0.44415959    -0.20600
C1026       C  0.00535963  0.98797639  0.42796089    -0.07100
C1027       C  0.94836016  0.42391654  0.41892033     0.13700
C1028       C  0.43251449  0.45358785  0.43155957    -0.20600
C1029       C  0.43645548  0.48745947  0.42660560    -0.07100
C1030       C  0.46836665  0.00219876  0.44163088     0.13700
C1031       C  0.47074559  0.03237077  0.45519437    -0.24000
H1032       H  0.51716885  0.00722783  0.45478022     0.15000
H1033       H  0.89704255  0.41491064  0.40880152     0.15000
C1034       C  0.94299688  0.39017867  0.40811679    -0.23900
H1035       H  0.49352144  0.04270210  0.46675405     0.05300
H1036       H  0.44565304  0.02271059  0.46474007     0.08500
H1037       H  0.47485176  0.05499236  0.44459894     0.08500
H1038       H  0.94550207  0.37256045  0.42031717     0.08500
H1039       H  0.96338175  0.39706566  0.39516352     0.08500
H1040       H  0.91605057  0.37476561  0.40058780     0.05200
C1041       C  0.44330320  0.74631239  0.27337964    -0.20600
C1042       C  0.47524484  0.77406930  0.26386637    -0.07100
C1043       C  0.01541916  0.77040941  0.25758034     0.13700
C1044       C  0.00623641  0.73409725  0.25755417    -0.20600
C1045       C  0.45662480  0.70028884  0.26158552    -0.07100
C1046       C  0.43360412  0.70979402  0.27217339     0.13700
C1047       C  0.39927987  0.68170472  0.28261294    -0.24000
H1048       H  0.42528381  0.75311548  0.28165657     0.15000
H1049       H  0.02575707  0.72721894  0.25163147     0.15000
C1050       C  0.05190999  0.79798920  0.24922334    -0.23900
H1051       H  0.38480119  0.69379752  0.29072634     0.05300
H1052       H  0.40527204  0.66667997  0.29499118     0.08500
H1053       H  0.38124113  0.66276723  0.27011317     0.08500
H1054       H  0.06703271  0.81775906  0.26214739     0.08500
H1055       H  0.04899063  0.81186643  0.23484162     0.08500
H1056       H  0.06807526  0.78563305  0.24416896     0.05200
C1057       C  0.48471028  0.01591282  0.23362305    -0.20600
C1058       C  0.45566832  0.51460282  0.24215757    -0.07100
C1059       C  0.93657173  0.48308650  0.24479216     0.13700
C1060       C  0.94277431  0.45400425  0.24435538    -0.20600
C1061       C  0.47522738  0.96101712  0.25100124    -0.07100
C1062       C  0.49435506  0.98921266  0.23608068     0.13700
C1063       C  0.52433797  0.99099201  0.22254167    -0.24000
H1064       H  0.50028401  0.03838021  0.22281670     0.15000
H1065       H  0.91963279  0.42719668  0.24428444     0.15000
C1066       C  0.89843536  0.47562217  0.24572584    -0.23900
H1067       H  0.53572823  0.01433532  0.21129840     0.05300
H1068       H  0.51414909  0.96622023  0.21268121     0.08500
H1069       H  0.54628578  0.99368796  0.23321512     0.08500
H1070       H  0.89289215  0.48783514  0.23145647     0.08500
H1071       H  0.89405736  0.48676300  0.26090860     0.08500
H1072       H  0.87873140  0.44639486  0.24554147     0.05200
C1073       C  0.02268997  0.93538847  0.35461198    -0.20600
C1074       C  0.06030483  0.95574096  0.35694514    -0.07100
C1075       C  0.08219224  0.95752880  0.33961164     0.13700
C1076       C  0.06623839  0.93833725  0.32062462    -0.20600
C1077       C  0.02846577  0.91676984  0.31817673    -0.07100
C1078       C  0.00645228  0.91631943  0.33538419     0.13700
C1079       C  0.96616390  0.89565911  0.33385460    -0.24000
H1080       H  0.00591675  0.93348255  0.36827085     0.15000
H1081       H  0.53214593  0.95589855  0.31000608     0.15000
C1082       C  0.56943373  0.99381267  0.34474481    -0.23900
H1083       H  0.95333014  0.89808874  0.34890303     0.05300
H1084       H  0.95670544  0.86675889  0.33123729     0.08500
H1085       H  0.95728757  0.90623038  0.32022893     0.08500
H1086       H  0.13112119  0.96725424  0.35508755     0.08500
H1087       H  0.55970491  0.00502753  0.35753382     0.08500
H1088       H  0.56996190  0.00720852  0.32922675     0.05200
C1089       C  0.50130826  0.89073652  0.18256555    -0.20600
C1090       C  0.47458572  0.86067626  0.19394049    -0.07100
C1091       C  0.97242469  0.82952466  0.18193675     0.13700
C1092       C  0.45301373  0.83049302  0.15945719    -0.20600
C1093       C  0.47910371  0.86093245  0.14802852    -0.07100
C1094       C  0.50374387  0.89139334  0.15984574     0.13700
C1095       C  0.53148436  0.92522318  0.14868908    -0.24000
H1096       H  0.52017282  0.91431575  0.19155909     0.15000
H1097       H  0.96457796  0.80521041  0.15036086     0.15000
C1098       C  0.95151322  0.79422692  0.19364259    -0.23900
H1099       H  0.54789443  0.94672069  0.16048761     0.05300
H1100       H  0.51808978  0.93550736  0.13781123     0.08500
H1101       H  0.54995405  0.91960675  0.13909241     0.08500
H1102       H  0.92786613  0.79290715  0.20178943     0.08500
H1103       H  0.96879663  0.79156033  0.20599646     0.08500
H1104       H  0.94181700  0.77115915  0.18233820     0.05200
O1105       O  0.50967492  0.42968904  0.24458692    -0.74700
O1106       O  0.51538936  0.34363318  0.25738376    -0.74700
O1107       O  0.50270396  0.37246253  0.22234931    -0.74800
O1108       O  0.52779377  0.40437034  0.27971786    -0.74800
O1109       O  0.95908986  0.36405946  0.28610612    -0.74800
O1110       O  0.94749765  0.34498373  0.22393048    -0.74700
O1111       O  0.94978831  0.30891749  0.25947154    -0.74700
O1112       O  0.95183999  0.39648871  0.25072348    -0.74800
Ni1113     Ni  0.51602392  0.38852444  0.25082857     1.25400
Ni1114     Ni  0.94991122  0.35242444  0.25526529     1.25400
C1115       C  0.47890393  0.42779820  0.24683752     0.87500
C1116       C  0.48629979  0.31519048  0.26346846     0.87400
C1117       C  0.97635521  0.35746663  0.21238623     0.87500
C1118       C  0.50427265  0.39862660  0.29410671     0.87600
O1119       O  0.52851408  0.44257663  0.42399755    -0.74700
O1120       O  0.61835211  0.44365224  0.41232984    -0.74700
O1121       O  0.58278878  0.44638304  0.44806689    -0.74800
O1122       O  0.56066448  0.43489326  0.38863961    -0.74800
O1123       O  0.58768431  0.49403135  0.38338998    -0.74800
O1124       O  0.61148938  0.50594067  0.44500000    -0.74700
O1125       O  0.64484272  0.50286079  0.40808286    -0.74700
O1126       O  0.55837062  0.50181889  0.42000884    -0.74800
Ni1127     Ni  0.57179957  0.43977557  0.41835060     1.25400
Ni1128     Ni  0.60185303  0.50328333  0.41391276     1.25400
C1129       C  0.52909407  0.47288055  0.42368337     0.87500
C1130       C  0.64679552  0.47429790  0.40869963     0.87400
C1131       C  0.59913284  0.47727172  0.45672940     0.87500
C1132       C  0.56801600  0.46159127  0.37647483     0.87600
O1133       O  0.92999586  0.04297996  0.25045449    -0.74700
O1134       O  0.92484036  0.13088935  0.25677323    -0.74700
O1135       O  0.93562701  0.09574550  0.22422708    -0.74800
O1136       O  0.91340877  0.07424512  0.28309851    -0.74800
O1137       O  0.97107658  0.10234702  0.29227697    -0.74800
O1138       O  0.99417578  0.12812681  0.23118211    -0.74700
O1139       O  0.98227054  0.15874540  0.26611850    -0.74700
O1140       O  0.98835582  0.07578173  0.25792662    -0.74800
Ni1141     Ni  0.92380829  0.08496307  0.25346402     1.25400
Ni1142     Ni  0.98600071  0.11748959  0.26223306     1.25400
C1143       C  0.96111264  0.04589180  0.25319154     0.87500
C1144       C  0.95411741  0.16003659  0.26169005     0.87400
C1145       C  0.96772778  0.11473077  0.21767965     0.87500
C1146       C  0.93761470  0.08216468  0.29729578     0.87600
O1147       O  0.91272709  0.03297510  0.42889433    -0.74700
O1148       O  0.82124568  0.02920522  0.41926546    -0.74700
O1149       O  0.85646089  0.02298614  0.45370179    -0.74800
O1150       O  0.88054893  0.04434635  0.39474209    -0.74800
O1151       O  0.85632536  0.98651961  0.38640816    -0.74800
O1152       O  0.81103374  0.44329340  0.43536615    -0.74700
O1153       O  0.79034964  0.46327313  0.39900823    -0.74700
O1154       O  0.86793996  0.44956715  0.41314767    -0.74800
Ni1155     Ni  0.86851002  0.03445420  0.42432513     1.25400
Ni1156     Ni  0.82888683  0.45562414  0.40567123     1.25400
C1157       C  0.91352148  0.00348940  0.42690531     0.87500
C1158       C  0.79368558  0.99862066  0.41439843     0.87400
C1159       C  0.84063051  0.99086835  0.46067798     0.87500
C1160       C  0.87477199  0.01999686  0.38102238     0.87600
O1161       O  0.58882984  0.03779415  0.58302770    -0.74700
O1162       O  0.67534478  0.03356946  0.59564285    -0.74700
O1163       O  0.63504863  0.02502807  0.56051844    -0.74800
O1164       O  0.63129434  0.05128704  0.61791455    -0.74800
O1165       O  0.59639784  0.99435875  0.62781276    -0.74800
O1166       O  0.58147652  0.45600495  0.56450026    -0.74700
O1167       O  0.62285523  0.46723226  0.60004053    -0.74700
O1168       O  0.53724259  0.46850744  0.58950976    -0.74800
Ni1169     Ni  0.63395799  0.03895297  0.58906621     1.25400
Ni1170     Ni  0.57942241  0.46711321  0.59514847     1.25400
C1171       C  0.55835463  0.00855461  0.58511032     0.87500
C1172       C  0.67165022  0.00315136  0.60164829     0.87400
C1173       C  0.61824638  0.99257508  0.55427854     0.87500
C1174       C  0.61172993  0.02826408  0.63208845     0.87600
O1175       O  0.58924300  0.05967561  0.76026472    -0.74700
O1176       O  0.67991228  0.14830720  0.75011375    -0.74700
O1177       O  0.63843761  0.11428628  0.78473696    -0.74800
O1178       O  0.63249593  0.09042652  0.72593101    -0.74800
O1179       O  0.60101186  0.11739434  0.71848543    -0.74800
O1180       O  0.60965255  0.14461643  0.77942981    -0.74700
O1181       O  0.64839342  0.17525132  0.74300871    -0.74700
O1182       O  0.56133049  0.09055198  0.75453249    -0.74800
Ni1183     Ni  0.63625780  0.10230511  0.75543084     1.25400
Ni1184     Ni  0.60424635  0.13319735  0.74855826     1.25400
C1185       C  0.55997690  0.06097820  0.75879722     0.87500
C1186       C  0.67851885  0.17688451  0.74550535     0.87400
C1187       C  0.62482392  0.13234684  0.79214211     0.87500
C1188       C  0.61397696  0.09726810  0.71280584     0.87600
O1189       O  0.85560771  0.43048858  0.57508986    -0.74700
O1190       O  0.76708264  0.43163030  0.58747926    -0.74700
O1191       O  0.80403325  0.43347039  0.55165676    -0.74800
O1192       O  0.81688872  0.42360446  0.61094465    -0.74800
O1193       O  0.85096020  0.48267823  0.61506123    -0.74800
O1194       O  0.83388373  0.49315009  0.55402883    -0.74700
O1195       O  0.80061724  0.49077439  0.59188747    -0.74700
O1196       O  0.88497077  0.49000091  0.57742104    -0.74800
Ni1197     Ni  0.80959308  0.42765264  0.58126438     1.25400
Ni1198     Ni  0.84344539  0.49126742  0.58482115     1.25400
C1199       C  0.88520853  0.46093353  0.57436857     0.87500
C1200       C  0.76993354  0.46256019  0.59086750     0.87400
C1201       C  0.81719636  0.46413105  0.54273925     0.87500
C1202       C  0.83826440  0.45041173  0.62239356     0.87600
O1203       O  0.89575877  0.43665271  0.75376299    -0.74700
O1204       O  0.80282098  0.35083473  0.74471243    -0.74700
O1205       O  0.84817261  0.38061900  0.77779073    -0.74800
O1206       O  0.84849556  0.41012067  0.72033903    -0.74800
O1207       O  0.87589544  0.38104684  0.70867242    -0.74800
O1208       O  0.87542767  0.35027749  0.76820519    -0.74700
O1209       O  0.83154229  0.32285916  0.73371377    -0.74700
O1210       O  0.92133234  0.40552686  0.74290096    -0.74800
Ni1211     Ni  0.84779527  0.39565349  0.74936144     1.25400
Ni1212     Ni  0.87697170  0.36388366  0.73786432     1.25400
C1213       C  0.92413956  0.43437930  0.75034818     0.87500
C1214       C  0.80240530  0.32177638  0.73897339     0.87400
C1215       C  0.86131286  0.36091496  0.78277880     0.87500
C1216       C  0.86250413  0.40151613  0.70499002     0.87600
O1217       O  0.93522303  0.38739736  0.90873134    -0.74700
O1218       O  0.84175304  0.30223482  0.91948170    -0.74700
O1219       O  0.87936369  0.34008893  0.88415629    -0.74800
O1220       O  0.90039736  0.34716069  0.94350234    -0.74800
O1221       O  0.87922325  0.38427324  0.94895777    -0.74800
O1222       O  0.85341327  0.37347318  0.88770921    -0.74700
O1223       O  0.81992505  0.33886898  0.92487929    -0.74700
O1224       O  0.90880441  0.42037238  0.91207726    -0.74800
Ni1225     Ni  0.88987912  0.34281273  0.91382907     1.25400
Ni1226     Ni  0.86421609  0.38025570  0.91862964     1.25400
C1227       C  0.93680004  0.41820101  0.90889902     0.87500
C1228       C  0.81517799  0.30727623  0.92364619     0.87400
C1229       C  0.86398120  0.35584955  0.87580712     0.87500
C1230       C  0.89619158  0.36846882  0.95577711     0.87600
O1231       O  0.94485478  0.39712144  0.08792858    -0.74700
O1232       O  0.94051904  0.30521317  0.07729808    -0.74700
O1233       O  0.94869291  0.34635684  0.11182226    -0.74800
O1234       O  0.93111386  0.35404702  0.05308596    -0.74800
O1235       O  0.98954293  0.38386034  0.04545267    -0.74800
O1236       O  0.00770047  0.37433719  0.10621022    -0.74700
O1237       O  0.99879870  0.33572931  0.06990791    -0.74700
O1238       O  0.00337657  0.42366679  0.08148461    -0.74800
Ni1239     Ni  0.93911743  0.34952220  0.08261969     1.25400
Ni1240     Ni  0.00187747  0.38026246  0.07542506     1.25400
C1241       C  0.97596412  0.42589486  0.08665559     0.87500
C1242       C  0.97026385  0.30582223  0.07301897     0.87400
C1243       C  0.98033709  0.35898668  0.11902251     0.87500
C1244       C  0.95660027  0.37148006  0.03973813     0.87600
O1245       O  0.54891145  0.10785391  0.91418159    -0.74700
O1246       O  0.63848002  0.19633872  0.92543800    -0.74700
O1247       O  0.60689346  0.15485009  0.89090158    -0.74800
O1248       O  0.57780944  0.15143115  0.94872135    -0.74800
O1249       O  0.60124661  0.11783211  0.95863444    -0.74800
O1250       O  0.63419860  0.12399265  0.89918921    -0.74700
O1251       O  0.66243025  0.16331518  0.93555178    -0.74700
O1252       O  0.57679763  0.07767183  0.92264478    -0.74800
Ni1253     Ni  0.59218070  0.15388594  0.91963198     1.25400
Ni1254     Ni  0.61978142  0.11978495  0.92945698     1.25400
C1255       C  0.54881518  0.07795520  0.91637074     0.87500
C1256       C  0.66598314  0.19389507  0.93120880     0.87400
C1257       C  0.62456416  0.13982491  0.88518416     0.87500
C1258       C  0.58204400  0.13239908  0.96293791     0.87600
O1259       O  0.51178910  0.09503939  0.09282305    -0.74700
O1260       O  0.51519385  0.18540834  0.08071711    -0.74700
O1261       O  0.50098356  0.14264365  0.11530653    -0.74800
O1262       O  0.53082368  0.13976674  0.05840179    -0.74800
O1263       O  0.98622846  0.11071567  0.05126297    -0.74800
O1264       O  0.95354816  0.11107480  0.11021894    -0.74700
O1265       O  0.96798895  0.15372430  0.07477050    -0.74700
O1266       O  0.96660839  0.06712570  0.08601911    -0.74800
Ni1267     Ni  0.51679273  0.14189284  0.08707548     1.25400
Ni1268     Ni  0.96663680  0.10981993  0.08007407     1.25400
C1269       C  0.48203383  0.06574191  0.08926081     0.87500
C1270       C  0.48607620  0.18430325  0.07445622     0.87400
C1271       C  0.97786697  0.12620452  0.12492961     0.87500
C1272       C  0.50824370  0.12383186  0.04332359     0.87600
C1273       C  0.53238367  0.13233883  0.98358504    -0.20600
C1274       C  0.56204785  0.12660956  0.98376394    -0.07100
C1275       C  0.57114602  0.11633645  0.00344122     0.13700
C1276       C  0.55168597  0.11393654  0.02235282    -0.20600
C1277       C  0.52313308  0.12118796  0.02217760    -0.07100
C1278       C  0.51305749  0.12996098  0.00245924     0.13700
C1279       C  0.48327228  0.13869646  0.00140373    -0.24000
H1280       H  0.52439678  0.13935828  0.96855595     0.15000
H1281       H  0.55934152  0.10709449  0.03758043     0.15000
C1282       C  0.60182741  0.10900816  0.00490399    -0.23900
H1283       H  0.47974553  0.14627153  0.98474734     0.05300
H1284       H  0.48941087  0.16157714  0.01231088     0.08500
H1285       H  0.96195716  0.07826778  0.01542732     0.08500
H1286       H  0.62708988  0.13304082  0.99956131     0.08500
H1287       H  0.59630565  0.08573210  0.99454447     0.08500
H1288       H  0.60578585  0.10248078  0.02174103     0.05200
C1289       C  0.00855722  0.27763193  0.06771723    -0.20600
C1290       C  0.97433440  0.27297251  0.07294654    -0.07100
C1291       C  0.44022984  0.24005176  0.06832853     0.13700
C1292       C  0.44805681  0.21201934  0.06739490    -0.20600
C1293       C  0.98996855  0.21588196  0.07727435    -0.07100
C1294       C  0.01676231  0.24991635  0.07002663     0.13700
C1295       C  0.05381712  0.25707740  0.06431076    -0.24000
H1296       H  0.02968820  0.30355987  0.06214517     0.15000
H1297       H  0.42678250  0.18571967  0.06256641     0.15000
C1298       C  0.40325573  0.23261669  0.06218895    -0.23900
H1299       H  0.07116025  0.28483990  0.05815717     0.05300
H1300       H  0.05207664  0.23815884  0.05150555     0.08500
H1301       H  0.06690353  0.25369766  0.07890482     0.08500
H1302       H  0.40518638  0.25075241  0.04877472     0.08500
H1303       H  0.38995164  0.23677103  0.07641886     0.08500
H1304       H  0.38593288  0.20452547  0.05665162     0.05200
C1305       C  0.95693648  0.99996781  0.08819487    -0.20600
C1306       C  0.98865397  0.02935295  0.09663332    -0.07100
C1307       C  0.50442733  0.02263335  0.09995328     0.13700
C1308       C  0.49702512  0.48583161  0.10220608    -0.20600
C1309       C  0.98261269  0.46318895  0.09058023    -0.07100
C1310       C  0.95554489  0.47177371  0.09493669     0.13700
C1311       C  0.91682549  0.44317366  0.09775361    -0.24000
H1312       H  0.93722754  0.00455745  0.08015700     0.15000
H1313       H  0.51643651  0.47943962  0.10891178     0.15000
C1314       C  0.54155495  0.05257225  0.10545145    -0.23900
H1315       H  0.89947821  0.45486138  0.10131032     0.05300
H1316       H  0.91421605  0.42532266  0.11150129     0.08500
H1317       H  0.90676537  0.42722324  0.08264864     0.08500
H1318       H  0.54010026  0.06871436  0.11902689     0.08500
H1319       H  0.55399986  0.06992257  0.09102159     0.08500
H1320       H  0.55942361  0.04220593  0.11058149     0.05200
C1321       C  0.75039167  0.28240991  0.91678984    -0.20600
C1322       C  0.77748416  0.27749175  0.92613786    -0.07100
C1323       C  0.76741034  0.24670676  0.93888993     0.13700
C1324       C  0.73069405  0.22123174  0.94138826    -0.20600
C1325       C  0.70341528  0.22541843  0.93135029    -0.07100
C1326       C  0.71375221  0.25699413  0.91910606     0.13700
C1327       C  0.68677628  0.26393990  0.90779425    -0.24000
H1328       H  0.75806721  0.30635073  0.90721848     0.15000
H1329       H  0.72335648  0.19739137  0.95095816     0.15000
C1330       C  0.79511115  0.24104236  0.95028381    -0.23900
H1331       H  0.69984491  0.29004969  0.89905237     0.05300
H1332       H  0.66802707  0.26471748  0.91987210     0.08500
H1333       H  0.67163201  0.24261164  0.89565438     0.08500
H1334       H  0.81132081  0.26399251  0.96125096     0.08500
H1335       H  0.81301433  0.23883425  0.93818462     0.08500
H1336       H  0.78255438  0.21608704  0.96017977     0.05200
C1337       C  0.96883155  0.48168310  0.89692722    -0.20600
C1338       C  0.97064068  0.45307123  0.90689041    -0.07100
C1339       C  0.00132691  0.46072460  0.91898711     0.13700
C1340       C  0.02552785  0.99989070  0.92152244    -0.20600
C1341       C  0.51676592  0.04224096  0.91234460    -0.07100
C1342       C  0.48197398  0.03364744  0.91874409     0.13700
C1343       C  0.47395016  0.06198004  0.92678848    -0.24000
H1344       H  0.44761987  0.47304845  0.88310565     0.15000
H1345       H  0.05210358  0.00383822  0.92431305     0.15000
C1346       C  0.00460517  0.43155229  0.93042257    -0.23900
H1347       H  0.47277778  0.53193736  0.87017929     0.05300
H1348       H  0.47950825  0.08192134  0.91374799     0.08500
H1349       H  0.49080444  0.07571609  0.94114055     0.08500
H1350       H  0.00363174  0.41189158  0.91842011     0.08500
H1351       H  0.98228905  0.41781409  0.94218922     0.08500
H1352       H  0.03019784  0.44233693  0.93950367     0.05200
C1353       C  0.94446131  0.37107546  0.97887507    -0.20600
C1354       C  0.91383605  0.37508396  0.97737622    -0.07100
C1355       C  0.90054579  0.38246560  0.99638370     0.13700
C1356       C  0.91674230  0.38332304  0.01636853    -0.20600
C1357       C  0.94603773  0.37721296  0.01786491    -0.07100
C1358       C  0.96072722  0.37216165  0.99875314     0.13700
C1359       C  0.99211251  0.36580513  0.99928100    -0.24000
H1360       H  0.95522609  0.36575736  0.96436503     0.15000
H1361       H  0.90563747  0.38759937  0.03110611     0.15000
C1362       C  0.86840316  0.38756147  0.99590815    -0.23900
H1363       H  0.99949289  0.36127639  0.98279883     0.05300
H1364       H  0.98533656  0.34175249  0.00930102     0.08500
H1365       H  0.01586540  0.38957806  0.00623475     0.08500
H1366       H  0.84500321  0.36334787  0.98901717     0.08500
H1367       H  0.87443445  0.41137369  0.98586581     0.08500
H1368       H  0.86096485  0.39196819  0.01240251     0.05200
C1369       C  0.83025716  0.34858511  0.81804183    -0.20600
C1370       C  0.85990373  0.35223474  0.80608035    -0.07100
C1371       C  0.88959864  0.35480254  0.81723376     0.13700
C1372       C  0.88962671  0.35554300  0.83997654    -0.20600
C1373       C  0.86099466  0.35434233  0.85188965    -0.07100
C1374       C  0.83051931  0.34986356  0.84077009     0.13700
C1375       C  0.79820800  0.34604189  0.85268928    -0.24000
H1376       H  0.80721756  0.34624651  0.80944946     0.15000
H1377       H  0.91288369  0.35836105  0.84853473     0.15000
C1378       C  0.92200564  0.35874551  0.80535185    -0.23900
H1379       H  0.77618354  0.34126765  0.84139263     0.05300
H1380       H  0.80555838  0.37095201  0.86184624     0.08500
H1381       H  0.78790369  0.32296297  0.86409316     0.08500
H1382       H  0.93386644  0.38329807  0.79510051     0.08500
H1383       H  0.91408235  0.33487647  0.79498207     0.08500
H1384       H  0.94304844  0.36102733  0.81671056     0.05200
C1385       C  0.86382811  0.44974900  0.68181948    -0.20600
C1386       C  0.86223473  0.41613192  0.68307920    -0.07100
C1387       C  0.85615697  0.39612191  0.66392221     0.13700
C1388       C  0.84998522  0.40918050  0.64447435    -0.20600
C1389       C  0.84937970  0.44171314  0.64342397    -0.07100
C1390       C  0.85764518  0.46283245  0.66227211     0.13700
C1391       C  0.85847854  0.49822736  0.66213898    -0.24000
H1392       H  0.86895807  0.46551711  0.69643495     0.15000
H1393       H  0.84471644  0.39320071  0.62993968     0.15000
C1394       C  0.85423467  0.36017007  0.66397201    -0.23900
H1395       H  0.86428666  0.51068104  0.67847784     0.05300
H1396       H  0.83208575  0.49422570  0.65682588     0.08500
H1397       H  0.87977835  0.51717230  0.65092318     0.08500
H1398       H  0.83277750  0.34152559  0.67522794     0.08500
H1399       H  0.88040213  0.36344452  0.66912420     0.08500
H1400       H  0.84811207  0.34771987  0.64762817     0.05200
C1401       C  0.63612161  0.16963579  0.84934479    -0.20600
C1402       C  0.63105314  0.13974477  0.86168040    -0.07100
C1403       C  0.62459640  0.10823788  0.85092251     0.13700
C1404       C  0.62227684  0.10702468  0.82829326    -0.20600
C1405       C  0.62602789  0.13634790  0.81597095    -0.07100
C1406       C  0.63367781  0.16832120  0.82660160     0.13700
C1407       C  0.63979176  0.20104695  0.81413269    -0.24000
H1408       H  0.64088740  0.19382131  0.85764108     0.15000
H1409       H  0.61666637  0.08246583  0.82012585     0.15000
C1410       C  0.61809691  0.07512186  0.86314032    -0.23900
H1411       H  0.64664453  0.22409966  0.82504600     0.05300
H1412       H  0.61511807  0.19509907  0.80513665     0.08500
H1413       H  0.66230430  0.20917020  0.80250290     0.08500
H1414       H  0.59450114  0.06596144  0.87399772     0.08500
H1415       H  0.64213632  0.08115580  0.87287374     0.08500
H1416       H  0.61265108  0.05264888  0.85204855     0.05200
C1417       C  0.99760351  0.01466045  0.77833193    -0.20600
C1418       C  0.52318971  0.02885222  0.76095243    -0.07100
C1419       C  0.50799139  0.48235417  0.76631005     0.13700
C1420       C  0.99027182  0.45954371  0.74821394    -0.20600
C1421       C  0.96137884  0.46434352  0.75471512    -0.07100
C1422       C  0.96137722  0.98701066  0.77750512     0.13700
C1423       C  0.93400789  0.98941327  0.79151721    -0.24000
H1424       H  0.49808899  0.05969694  0.75131317     0.15000
H1425       H  0.98493081  0.43460126  0.74071907     0.15000
C1426       C  0.53675510  0.47416535  0.77303916    -0.23900
H1427       H  0.94652786  0.01367829  0.80194033     0.05300
H1428       H  0.92059295  0.96546931  0.80223853     0.08500
H1429       H  0.91369873  0.99089301  0.78118603     0.08500
H1430       H  0.55177453  0.49117542  0.78707796     0.08500
H1431       H  0.55544117  0.47929869  0.75932118     0.08500
H1432       H  0.52527212  0.44564184  0.77796288     0.05200
C1433       C  0.70729360  0.24309103  0.74956489    -0.20600
C1434       C  0.71100978  0.21334630  0.74379537    -0.07100
C1435       C  0.74440165  0.21973458  0.73587701     0.13700
C1436       C  0.77269186  0.25534309  0.73360744    -0.20600
C1437       C  0.76923990  0.28531131  0.73956153    -0.07100
C1438       C  0.73577332  0.27870431  0.74780326     0.13700
C1439       C  0.72963622  0.30860459  0.75516258    -0.24000
H1440       H  0.68181367  0.23841967  0.75591301     0.15000
H1441       H  0.79807480  0.25953842  0.72744044     0.15000
C1442       C  0.75035915  0.18933720  0.72945860    -0.23900
H1443       H  0.70167885  0.29834612  0.76087498     0.05300
H1444       H  0.73456393  0.32735831  0.74149681     0.08500
H1445       H  0.74775578  0.32320799  0.76888566     0.08500
H1446       H  0.73081188  0.17279930  0.71675478     0.08500
H1447       H  0.74707288  0.17237901  0.74382653     0.08500
H1448       H  0.77778537  0.19923814  0.72289720     0.05200
C1449       C  0.96497376  0.44562874  0.57735730    -0.20600
C1450       C  0.52343310  0.00626228  0.58080106    -0.07100
C1451       C  0.51478422  0.03123548  0.58938712     0.13700
C1452       C  0.97692755  0.02005945  0.59164347    -0.20600
C1453       C  0.92140008  0.46477720  0.57129301    -0.07100
C1454       C  0.92900291  0.43714033  0.57575284     0.13700
C1455       C  0.89969753  0.39901233  0.57976328    -0.24000
H1456       H  0.47842380  0.43851951  0.56931529     0.15000
H1457       H  0.97144206  0.03998291  0.59849628     0.15000
C1458       C  0.54263700  0.06507815  0.60035968    -0.23900
H1459       H  0.91066123  0.38088283  0.58277455     0.05300
H1460       H  0.88197247  0.38876681  0.56535583     0.08500
H1461       H  0.88377933  0.39779158  0.59424768     0.08500
H1462       H  0.56401633  0.08208575  0.58859149     0.08500
H1463       H  0.55461992  0.05819747  0.61418332     0.08500
H1464       H  0.53096187  0.08112986  0.60677885     0.05200
C1465       C  0.69629283  0.96152950  0.60048838    -0.20600
C1466       C  0.70272373  0.99682722  0.60363572    -0.07100
C1467       C  0.71558635  0.50857898  0.58228033     0.13700
C1468       C  0.74200089  0.49860003  0.58106989    -0.20600
C1469       C  0.73865164  0.46831315  0.59202480    -0.07100
C1470       C  0.72411911  0.95323596  0.60066907     0.13700
C1471       C  0.71490887  0.91501727  0.59675944    -0.24000
H1472       H  0.66922587  0.94017098  0.59716757     0.15000
H1473       H  0.76564059  0.51459790  0.57119150     0.15000
C1474       C  0.72062683  0.54024579  0.56900245    -0.23900
H1475       H  0.68554958  0.89680929  0.59491254     0.05300
H1476       H  0.72392494  0.90520586  0.61071208     0.08500
H1477       H  0.72799835  0.91336123  0.58163426     0.08500
H1478       H  0.72183935  0.56139654  0.57983438     0.08500
H1479       H  0.69815032  0.53157008  0.55735272     0.08500
H1480       H  0.74593949  0.55237514  0.55945880     0.05200
C1481       C  0.59763194  0.04242680  0.69179133    -0.20600
C1482       C  0.60673084  0.07883414  0.69159154    -0.07100
C1483       C  0.61378970  0.09699956  0.67168815     0.13700
C1484       C  0.61346969  0.07893999  0.65263872    -0.20600
C1485       C  0.60681978  0.04313856  0.65289976    -0.07100
C1486       C  0.59755329  0.02434582  0.67278273     0.13700
C1487       C  0.58911285  0.98596712  0.67435628    -0.24000
H1488       H  0.59188985  0.02838338  0.70718518     0.15000
H1489       H  0.61956227  0.09348976  0.63743231     0.15000
C1490       C  0.62362756  0.13584420  0.67062376    -0.23900
H1491       H  0.52031891  0.47152808  0.67754179     0.05300
H1492       H  0.61228792  0.98373753  0.66842145     0.08500
H1493       H  0.52408133  0.47856919  0.64871670     0.08500
H1494       H  0.64805906  0.15240100  0.68044109     0.08500
H1495       H  0.60117105  0.13886246  0.67703614     0.08500
H1496       H  0.62918290  0.14626440  0.65373564     0.05200
C1497       C  0.81971650  0.43852148  0.50756869    -0.20600
C1498       C  0.81448862  0.46404518  0.51883611    -0.07100
C1499       C  0.80515806  0.48631331  0.50715865     0.13700
C1500       C  0.80336729  0.48387096  0.48441056    -0.20600
C1501       C  0.81092183  0.45988884  0.47311192    -0.07100
C1502       C  0.81839929  0.43639194  0.48490317     0.13700
C1503       C  0.82756264  0.41090379  0.47366467    -0.24000
H1504       H  0.82640047  0.42098983  0.51656757     0.15000
H1505       H  0.79796421  0.50219264  0.47526071     0.15000
C1506       C  0.79692223  0.51231503  0.51853266    -0.23900
H1507       H  0.83327276  0.39483600  0.48543047     0.05300
H1508       H  0.85176435  0.42618085  0.46334654     0.08500
H1509       H  0.81948602  0.91415947  0.47452584     0.08500
H1510       H  0.82094679  0.53254709  0.52743478     0.08500
H1511       H  0.81508393  0.03252427  0.54387064     0.08500
H1512       H  0.78900027  0.52683788  0.50689851     0.05200
C1513       C  0.92512159  0.06526953  0.35847717    -0.20600
C1514       C  0.89198643  0.03267539  0.35932760    -0.07100
C1515       C  0.87589141  0.01545617  0.33973097     0.13700
C1516       C  0.89245777  0.03188636  0.31998836    -0.20600
C1517       C  0.92480198  0.06530626  0.31910486    -0.07100
C1518       C  0.94170132  0.08171740  0.33872920     0.13700
C1519       C  0.97624678  0.11714694  0.33905038    -0.24000
H1520       H  0.94084368  0.56246958  0.37010419     0.15000
H1521       H  0.87950834  0.01866887  0.30499992     0.15000
C1522       C  0.84057555  0.98076703  0.33944224    -0.23900
H1523       H  0.99143236  0.61127741  0.35528192     0.05300
H1524       H  0.97262147  0.13780195  0.33044508     0.08500
H1525       H  0.99782014  0.11433553  0.33104678     0.08500
H1526       H  0.81978145  0.98434791  0.34789591     0.08500
H1527       H  0.84345881  0.95936265  0.34763093     0.08500
H1528       H  0.83117628  0.97171678  0.32264289     0.05200
C1529       C  0.48153828  0.15798413  0.15569723    -0.20600
C1530       C  0.96975661  0.12404276  0.14829751    -0.07100
C1531       C  0.94891859  0.09061706  0.15861676     0.13700
C1532       C  0.95015113  0.08865925  0.18124289    -0.20600
C1533       C  0.97206158  0.11911367  0.19392687    -0.07100
C1534       C  0.48386763  0.15698792  0.17839573     0.13700
C1535       C  0.50618685  0.19123972  0.19077730    -0.24000
H1536       H  0.49766012  0.18319636  0.14721325     0.15000
H1537       H  0.93394923  0.06292615  0.18915433     0.15000
C1538       C  0.92687417  0.05666513  0.14584557    -0.23900
H1539       H  0.51880238  0.21494646  0.17982635     0.05300
H1540       H  0.52787530  0.18981497  0.19962206     0.08500
H1541       H  0.48901323  0.19528323  0.20258010     0.08500
H1542       H  0.94452049  0.05199605  0.13479431     0.08500
H1543       H  0.90637166  0.05898986  0.13620406     0.08500
H1544       H  0.91269806  0.03281108  0.15658033     0.05200
C1545       C  0.60709444  0.95260751  0.49744550    -0.20600
C1546       C  0.60082681  0.47796396  0.48077853    -0.07100
C1547       C  0.63094754  0.50302231  0.49257451     0.13700
C1548       C  0.62999667  0.50100320  0.51532758    -0.20600
C1549       C  0.61700054  0.98715118  0.53036589    -0.07100
C1550       C  0.60938918  0.95478594  0.52022379     0.13700
C1551       C  0.60397830  0.92268744  0.53312632    -0.24000
H1552       H  0.60063261  0.92742388  0.48982525     0.15000
H1553       H  0.65297581  0.52084460  0.52435095     0.15000
C1554       C  0.66413290  0.53164334  0.48135777    -0.23900
H1555       H  0.59998083  0.90021866  0.52245155     0.05300
H1556       H  0.57983027  0.91279483  0.54357293     0.08500
H1557       H  0.62792657  0.93017870  0.54334442     0.08500
H1558       H  0.65770781  0.54993827  0.47220682     0.08500
H1559       H  0.67464869  0.51902721  0.47003299     0.08500
H1560       H  0.68567692  0.54813146  0.49310834     0.05200
C1561       C  0.71312965  0.51082760  0.41343468    -0.20600
C1562       C  0.68337354  0.47865502  0.40602891    -0.07100
C1563       C  0.69300868  0.95100943  0.40270904     0.13700
C1564       C  0.72965277  0.96106243  0.40255137    -0.20600
C1565       C  0.75625762  0.99272789  0.41280030    -0.07100
C1566       C  0.74860392  0.51735312  0.41196713     0.13700
C1567       C  0.77847472  0.55186547  0.42111317    -0.24000
H1568       H  0.70851377  0.53082970  0.42108442     0.15000
H1569       H  0.73743403  0.94359743  0.39453571     0.15000
C1570       C  0.66606074  0.91720013  0.39138666    -0.23900
H1571       H  0.76848830  0.56946142  0.42739058     0.05300
H1572       H  0.79855158  0.56697451  0.40825070     0.08500
H1573       H  0.79146095  0.54600101  0.43481666     0.08500
H1574       H  0.65198007  0.92377968  0.37868654     0.08500
H1575       H  0.64615776  0.89830819  0.40327322     0.08500
H1576       H  0.67905348  0.90341421  0.38349025     0.05200
C1577       C  0.98385387  0.47829520  0.43965506    -0.20600
C1578       C  0.49644117  0.47647305  0.42658787    -0.07100
C1579       C  0.46395854  0.94338698  0.41830086     0.13700
C1580       C  0.94255810  0.96750742  0.43569709    -0.20600
C1581       C  0.94665956  0.00109451  0.42971223    -0.07100
C1582       C  0.95669438  0.48736977  0.43835289     0.13700
C1583       C  0.96189601  0.52042944  0.44993546    -0.24000
H1584       H  0.00860034  0.49626528  0.44799533     0.15000
H1585       H  0.41677105  0.93916612  0.40410462     0.15000
C1586       C  0.46113189  0.91262551  0.40507482    -0.23900
H1587       H  0.98700584  0.53316478  0.45959935     0.05300
H1588       H  0.93913714  0.51313203  0.46123914     0.08500
H1589       H  0.96369007  0.54061070  0.43802052     0.08500
H1590       H  0.45969524  0.89145072  0.41603342     0.08500
H1591       H  0.48485457  0.92228397  0.39429017     0.08500
H1592       H  0.43680109  0.90033266  0.39471644     0.05200
C1593       C  0.93834162  0.24006803  0.25501315    -0.20600
C1594       C  0.97300459  0.26950087  0.25913436    -0.07100
C1595       C  0.50747956  0.26980389  0.25571860     0.13700
C1596       C  0.49871087  0.23357527  0.25453373    -0.20600
C1597       C  0.95823889  0.19689608  0.26147661    -0.07100
C1598       C  0.93066173  0.20416327  0.25594321     0.13700
C1599       C  0.89319851  0.17459926  0.25080262    -0.24000
H1600       H  0.91687006  0.24510601  0.25067490     0.15000
H1601       H  0.51812127  0.22737219  0.24758866     0.15000
C1602       C  0.54333526  0.29827454  0.24707447    -0.23900
H1603       H  0.87501528  0.18525514  0.24710632     0.05300
H1604       H  0.88181523  0.15620459  0.26491428     0.08500
H1605       H  0.89369811  0.15946965  0.23636982     0.08500
H1606       H  0.55871735  0.31765660  0.26012127     0.08500
H1607       H  0.53941205  0.31249338  0.23324436     0.08500
H1608       H  0.55972583  0.28666681  0.24112657     0.05200
C1609       C  0.00111832  0.52294580  0.24424709    -0.20600
C1610       C  0.96795364  0.01556900  0.25198502    -0.07100
C1611       C  0.43651389  0.98624859  0.25990810     0.13700
C1612       C  0.44633425  0.95995688  0.26251548    -0.20600
C1613       C  0.97775759  0.45862932  0.24497306    -0.07100
C1614       C  0.00734764  0.49387773  0.24453666     0.13700
C1615       C  0.04554061  0.50147249  0.24507047    -0.24000
H1616       H  0.02419533  0.54980803  0.24409370     0.15000
H1617       H  0.43133943  0.93837135  0.27398149     0.15000
C1618       C  0.40664282  0.98436316  0.27363388    -0.23900
H1619       H  0.06517203  0.53071831  0.24470868     0.05300
H1620       H  0.05088023  0.48926789  0.23073226     0.08500
H1621       H  0.05026797  0.49046065  0.26020817     0.08500
H1622       H  0.38513672  0.98300442  0.26307969     0.08500
H1623       H  0.41735492  0.00849147  0.28405195     0.08500
H1624       H  0.39451201  0.96038583  0.28437719     0.05200
C1625       C  0.51425682  0.42616978  0.35397339    -0.20600
C1626       C  0.55090172  0.45257997  0.35479790    -0.07100
C1627       C  0.57058928  0.46395119  0.33539885     0.13700
C1628       C  0.55392417  0.44677138  0.31591152    -0.20600
C1629       C  0.51792135  0.41805570  0.31521691    -0.07100
C1630       C  0.49744072  0.40891854  0.33452265     0.13700
C1631       C  0.45841263  0.38032998  0.33508927    -0.24000
H1632       H  0.49901433  0.41779646  0.36897492     0.15000
H1633       H  0.03635735  0.45028396  0.30357675     0.15000
C1634       C  0.07406734  0.48592365  0.33879187    -0.23900
H1635       H  0.44689093  0.37656261  0.35165795     0.05300
H1636       H  0.45528175  0.35426961  0.32978881     0.08500
H1637       H  0.44278812  0.38809796  0.32429547     0.08500
H1638       H  0.62516103  0.48423046  0.34570680     0.08500
H1639       H  0.06657849  0.50099390  0.35022962     0.08500
H1640       H  0.07911389  0.49932856  0.32272368     0.05200
C1641       C  0.00637491  0.38383482  0.17755269    -0.20600
C1642       C  0.97653181  0.35580505  0.18839890    -0.07100
C1643       C  0.43725655  0.34906254  0.18210717     0.13700
C1644       C  0.95414369  0.32746832  0.15361468    -0.20600
C1645       C  0.98327995  0.35628435  0.14274501    -0.07100
C1646       C  0.01008307  0.38450180  0.15497966     0.13700
C1647       C  0.04169327  0.41619602  0.14441365    -0.24000
H1648       H  0.02680027  0.40605479  0.18681158     0.15000
H1649       H  0.41881708  0.35552980  0.15111355     0.15000
C1650       C  0.40783286  0.35132366  0.19400850    -0.23900
H1651       H  0.05972118  0.43608027  0.15654752     0.05300
H1652       H  0.03218787  0.43005503  0.13333375     0.08500
H1653       H  0.05769775  0.40695696  0.13515182     0.08500
H1654       H  0.41961185  0.37494268  0.20495859     0.08500
H1655       H  0.39167440  0.32645032  0.20361850     0.08500
H1656       H  0.38939679  0.35425495  0.18269928     0.05200
O1657       O  0.51103256  0.93084005  0.25228694    -0.74700
O1658       O  0.51087670  0.84016666  0.25989545    -0.74700
O1659       O  0.50698861  0.87856372  0.22624992    -0.74800
O1660       O  0.52063188  0.89630256  0.28614415    -0.74800
O1661       O  0.98166962  0.88007420  0.29101321    -0.74800
O1662       O  0.96197634  0.85210300  0.22981819    -0.74700
O1663       O  0.96832310  0.82059959  0.26666399    -0.74700
O1664       O  0.96945637  0.90694087  0.25454891    -0.74800
Ni1665     Ni  0.51454645  0.88735673  0.25607755     1.25400
Ni1666     Ni  0.96816330  0.86367047  0.26084684     1.25400
C1667       C  0.48035411  0.92942555  0.25351127     0.87500
C1668       C  0.48032217  0.81131047  0.26322590     0.87400
C1669       C  0.98957271  0.86451269  0.21711213     0.87500
C1670       C  0.49440613  0.88729475  0.29904483     0.87600
O1671       O  0.52696070  0.93169055  0.43143671    -0.74700
O1672       O  0.61779794  0.93549629  0.41921360    -0.74700
O1673       O  0.58537706  0.94297943  0.45463847    -0.74800
O1674       O  0.55659785  0.91979983  0.39617849    -0.74800
O1675       O  0.57851940  0.97725555  0.38781511    -0.74800
O1676       O  0.61247401  0.00130970  0.44715495    -0.74700
O1677       O  0.64041612  0.99290712  0.41000338    -0.74700
O1678       O  0.55419489  0.99051601  0.42488986    -0.74800
Ni1679     Ni  0.57087923  0.93034834  0.42556125     1.25400
Ni1680     Ni  0.59742571  0.99250463  0.41706848     1.25400
C1681       C  0.52625787  0.96127294  0.43003483     0.87500
C1682       C  0.64467942  0.96612275  0.41360309     0.87400
C1683       C  0.60336775  0.97548882  0.46084457     0.87500
C1684       C  0.56009896  0.94376374  0.38261433     0.87600
O1685       O  0.93345981  0.55151915  0.24646552    -0.74700
O1686       O  0.93548072  0.64169366  0.25794999    -0.74700
O1687       O  0.94445984  0.60936773  0.22307436    -0.74800
O1688       O  0.91952895  0.58065745  0.28113115    -0.74800
O1689       O  0.97671512  0.60372479  0.29056019    -0.74800
O1690       O  0.00274784  0.63615626  0.23055084    -0.74700
O1691       O  0.99281050  0.66508571  0.26725092    -0.74700
O1692       O  0.99150132  0.57899150  0.25448986    -0.74800
Ni1693     Ni  0.93115097  0.59505685  0.25197178     1.25400
Ni1694     Ni  0.99298958  0.62216859  0.26113461     1.25400
C1695       C  0.96300752  0.55093406  0.24862228     0.87500
C1696       C  0.96579616  0.66888245  0.26356698     0.87400
C1697       C  0.97694545  0.62628914  0.21676056     0.87500
C1698       C  0.94294049  0.58432707  0.29503706     0.87600
O1699       O  0.90041384  0.50571151  0.42474832    -0.74700
O1700       O  0.81968224  0.51956351  0.41067792    -0.74700
O1701       O  0.84271306  0.50047795  0.44570669    -0.74800
O1702       O  0.88091633  0.53009282  0.38972126    -0.74800
O1703       O  0.85085662  0.47416586  0.37726671    -0.74800
O1704       O  0.83021996  0.96430635  0.44740618    -0.74700
O1705       O  0.79734089  0.97130842  0.41150494    -0.74700
O1706       O  0.88530924  0.97447599  0.42183626    -0.74800
Ni1707     Ni  0.86205442  0.51603949  0.41797017     1.25400
Ni1708     Ni  0.84115559  0.97207225  0.41645437     1.25400
C1709       C  0.89677330  0.47442291  0.42140147     0.87500
C1710       C  0.79054745  0.49219104  0.40371887     0.87400
C1711       C  0.82120147  0.46771603  0.45009980     0.87500
C1712       C  0.87370146  0.50781538  0.37436130     0.87600
O1713       O  0.56760080  0.52620773  0.58009097    -0.74700
O1714       O  0.65580376  0.52405264  0.58946407    -0.74700
O1715       O  0.61258796  0.51403182  0.55588897    -0.74800
O1716       O  0.61335408  0.54155561  0.61363872    -0.74800
O1717       O  0.58039146  0.48500819  0.62467396    -0.74800
O1718       O  0.60169009  0.96688929  0.56814223    -0.74700
O1719       O  0.64046963  0.97634584  0.60497283    -0.74700
O1720       O  0.55676186  0.97974598  0.59157412    -0.74800
Ni1721     Ni  0.61348738  0.52849468  0.58456335     1.25400
Ni1722     Ni  0.59788655  0.97725509  0.59858456     1.25400
C1723       C  0.53764705  0.49675792  0.58301820     0.87500
C1724       C  0.65331073  0.49404354  0.59524425     0.87400
C1725       C  0.59753053  0.48131244  0.55029897     0.87500
C1726       C  0.59655873  0.51907061  0.62870717     0.87600
O1727       O  0.58230023  0.54702286  0.75819983    -0.74700
O1728       O  0.67304219  0.63660157  0.74835434    -0.74700
O1729       O  0.63291860  0.60023954  0.78317477    -0.74800
O1730       O  0.62427495  0.57983638  0.72334870    -0.74800
O1731       O  0.59201863  0.60674147  0.71836108    -0.74800
O1732       O  0.60525773  0.63197460  0.77978441    -0.74700
O1733       O  0.64123021  0.66363052  0.74276337    -0.74700
O1734       O  0.55501063  0.57902017  0.75521293    -0.74800
Ni1735     Ni  0.62937080  0.58996771  0.75334130     1.25400
Ni1736     Ni  0.59749327  0.62150377  0.74880529     1.25400
C1737       C  0.55328397  0.54897445  0.75817026     0.87500
C1738       C  0.67150320  0.66544975  0.74473856     0.87400
C1739       C  0.62080112  0.61898972  0.79162753     0.87500
C1740       C  0.60525616  0.58759995  0.71121807     0.87600
O1741       O  0.88209823  0.94970199  0.58595431    -0.74700
O1742       O  0.79092066  0.94673613  0.59697893    -0.74700
O1743       O  0.83210544  0.95473097  0.56196510    -0.74800
O1744       O  0.83884284  0.93596580  0.62058107    -0.74800
O1745       O  0.87053869  0.99420236  0.62830194    -0.74800
O1746       O  0.86030302  0.01371198  0.56741754    -0.74700
O1747       O  0.82247629  0.00480426  0.60463706    -0.74700
O1748       O  0.90928028  0.00844183  0.59174607    -0.74800
Ni1749     Ni  0.83475687  0.94466580  0.59119656     1.25400
Ni1750     Ni  0.86644997  0.00735603  0.59833933     1.25400
C1751       C  0.91109186  0.98061955  0.58727667     0.87500
C1752       C  0.79223690  0.97650515  0.60213255     0.87400
C1753       C  0.84543675  0.98640940  0.55455012     0.87500
C1754       C  0.85758667  0.96096182  0.63383813     0.87600
O1755       O  0.88562861  0.92800112  0.76388727    -0.74700
O1756       O  0.79417197  0.84030076  0.75261687    -0.74700
O1757       O  0.83633188  0.87128118  0.78737787    -0.74800
O1758       O  0.84135506  0.90044805  0.72951524    -0.74800
O1759       O  0.87222171  0.87396549  0.71973444    -0.74800
O1760       O  0.86480032  0.84140388  0.77974838    -0.74700
O1761       O  0.82512604  0.81390032  0.74314224    -0.74700
O1762       O  0.91274156  0.89708075  0.75564641    -0.74800
Ni1763     Ni  0.83817493  0.88590104  0.75858458     1.25400
Ni1764     Ni  0.86953948  0.85537557  0.74917831     1.25400
C1765       C  0.91457411  0.92631980  0.76131318     0.87500
C1766       C  0.79504591  0.81193558  0.74663717     0.87400
C1767       C  0.84991044  0.85250762  0.79354975     0.87500
C1768       C  0.85918141  0.89455916  0.71529412     0.87600
O1769       O  0.92819841  0.89255065  0.92002298    -0.74700
O1770       O  0.83690788  0.80494584  0.93085228    -0.74700
O1771       O  0.87336219  0.84320478  0.89568600    -0.74800
O1772       O  0.89498217  0.85239746  0.95505618    -0.74800
O1773       O  0.87022705  0.88654770  0.96034580    -0.74800
O1774       O  0.84539604  0.87469680  0.89877302    -0.74700
O1775       O  0.81195543  0.83901709  0.93559899    -0.74700
O1776       O  0.89959538  0.92324339  0.92367865    -0.74800
Ni1777     Ni  0.88412917  0.84695837  0.92534370     1.25400
Ni1778     Ni  0.85559638  0.88182521  0.92984483     1.25400
C1779       C  0.92846961  0.92270495  0.92028301     0.87500
C1780       C  0.80897975  0.80813535  0.93411391     0.87400
C1781       C  0.85670039  0.85745997  0.88707114     0.87500
C1782       C  0.88922802  0.87289569  0.96713272     0.87600
O1783       O  0.94712247  0.89247945  0.09611447    -0.74700
O1784       O  0.95479515  0.80810591  0.08254345    -0.74700
O1785       O  0.96079299  0.84614255  0.11813583    -0.74800
O1786       O  0.93581537  0.85196351  0.06059649    -0.74800
O1787       O  0.99263902  0.88925428  0.05146574    -0.74800
O1788       O  0.01908923  0.88079204  0.11082854    -0.74700
O1789       O  0.01172710  0.84460026  0.07309857    -0.74700
O1790       O  0.00537430  0.92638332  0.08859663    -0.74800
Ni1791     Ni  0.94759696  0.84828794  0.08950884     1.25400
Ni1792     Ni  0.00932089  0.88627071  0.08056020     1.25400
C1793       C  0.97579027  0.92357530  0.09455626     0.87500
C1794       C  0.98563908  0.81299308  0.07643481     0.87400
C1795       C  0.99319761  0.86280003  0.12435235     0.87500
C1796       C  0.95880238  0.87334475  0.04695020     0.87600
O1797       O  0.55001076  0.59252225  0.91315149    -0.74700
O1798       O  0.63487889  0.68556639  0.92511898    -0.74700
O1799       O  0.60690262  0.64253672  0.89036929    -0.74800
O1800       O  0.57474590  0.63739059  0.94763963    -0.74800
O1801       O  0.60350951  0.60947638  0.95891485    -0.74800
O1802       O  0.63694266  0.61470841  0.89931917    -0.74700
O1803       O  0.66295227  0.65647114  0.93537487    -0.74700
O1804       O  0.58143857  0.56691884  0.92356774    -0.74800
Ni1805     Ni  0.59065481  0.64060023  0.91881483     1.25400
Ni1806     Ni  0.62242776  0.61110458  0.92973022     1.25400
C1807       C  0.55247014  0.56416168  0.91643517     0.87500
C1808       C  0.66357056  0.68587627  0.93160714     0.87400
C1809       C  0.62602065  0.62894381  0.88494827     0.87500
C1810       C  0.58200900  0.62168077  0.96261961     0.87600
O1811       O  0.51807821  0.59661387  0.09215778    -0.74700
O1812       O  0.52294115  0.68873082  0.08207407    -0.74700
O1813       O  0.50882626  0.64424781  0.11606072    -0.74800
O1814       O  0.53736861  0.64285112  0.05838179    -0.74800
O1815       O  0.99965368  0.62016774  0.04909061    -0.74800
O1816       O  0.97155062  0.62286725  0.10879847    -0.74700
O1817       O  0.98697966  0.66612191  0.07367525    -0.74700
O1818       O  0.97973751  0.57609373  0.08381051    -0.74800
Ni1819     Ni  0.52395682  0.64431938  0.08742104     1.25400
Ni1820     Ni  0.98253584  0.62054455  0.07839095     1.25400
C1821       C  0.48760408  0.56785071  0.08889682     0.87500
C1822       C  0.49403622  0.68807547  0.07568234     0.87400
C1823       C  0.99637017  0.63662467  0.12331049     0.87500
C1824       C  0.51450211  0.62585681  0.04357317     0.87600
C1825       C  0.52990144  0.61622444  0.98336973    -0.20600
C1826       C  0.56348520  0.61771592  0.98383820    -0.07100
C1827       C  0.57886240  0.61858822  0.00414684     0.13700
C1828       C  0.56148172  0.62014458  0.02316142    -0.20600
C1829       C  0.52887463  0.62069432  0.02260667    -0.07100
C1830       C  0.51246873  0.61766033  0.00235038     0.13700
C1831       C  0.47746549  0.61742819  0.00043988    -0.24000
H1832       H  0.51741603  0.61473588  0.96787387     0.15000
H1833       H  0.57388475  0.62148916  0.03866385     0.15000
C1834       C  0.61410330  0.61929809  0.00592611    -0.23900
H1835       H  0.46924587  0.61630182  0.98326572     0.05300
H1836       H  0.48010673  0.64221635  0.00773537     0.08500
H1837       H  0.97466549  0.60950379  0.01076920     0.08500
H1838       H  0.63534712  0.64304310  0.99717708     0.08500
H1839       H  0.61153691  0.59441114  0.99885302     0.08500
H1840       H  0.62264771  0.62088222  0.02306506     0.05200
C1841       C  0.97992703  0.75757436  0.09251956    -0.20600
C1842       C  0.99299977  0.78254743  0.07549399    -0.07100
C1843       C  0.44660756  0.74263844  0.07095151     0.13700
C1844       C  0.45494355  0.71498078  0.07003686    -0.20600
C1845       C  0.01195900  0.72803691  0.07884656    -0.07100
C1846       C  0.98928976  0.73074888  0.09448949     0.13700
C1847       C  0.97503133  0.70537190  0.11354700    -0.24000
H1848       H  0.96299566  0.75967073  0.10478298     0.15000
H1849       H  0.43348429  0.68833040  0.06596852     0.15000
C1850       C  0.40886356  0.73406042  0.06592811    -0.23900
H1851       H  0.95902627  0.71213866  0.12471598     0.05300
H1852       H  0.99775827  0.70682224  0.12287755     0.08500
H1853       H  0.95737069  0.67752007  0.10782722     0.08500
H1854       H  0.40918612  0.75123023  0.05236941     0.08500
H1855       H  0.39651684  0.73860231  0.08050109     0.08500
H1856       H  0.39153807  0.70560131  0.06106125     0.05200
C1857       C  0.96486448  0.50814119  0.09625762    -0.20600
C1858       C  0.00044136  0.53651919  0.09304129    -0.07100
C1859       C  0.50577450  0.52200521  0.10123275     0.13700
C1860       C  0.49735221  0.98706125  0.10100535    -0.20600
C1861       C  0.97614343  0.95782028  0.09835074    -0.07100
C1862       C  0.95049336  0.96465062  0.08883200     0.13700
C1863       C  0.91755005  0.93535146  0.07786801    -0.24000
H1864       H  0.94377239  0.51445214  0.09910325     0.15000
H1865       H  0.51887027  0.98225248  0.10566758     0.15000
C1866       C  0.54138075  0.55047656  0.11000717    -0.23900
H1867       H  0.90075460  0.94560809  0.07067558     0.05300
H1868       H  0.90081066  0.91421513  0.08983583     0.08500
H1869       H  0.92564085  0.92345706  0.06460047     0.08500
H1870       H  0.53704610  0.56592151  0.12288830     0.08500
H1871       H  0.55786917  0.56882002  0.09673726     0.08500
H1872       H  0.55684223  0.53869409  0.11719162     0.05200
C1873       C  0.74549758  0.77902161  0.92222876    -0.20600
C1874       C  0.77182991  0.77676100  0.93458987    -0.07100
C1875       C  0.76142535  0.74614968  0.94755322     0.13700
C1876       C  0.72539463  0.71814751  0.94723217    -0.20600
C1877       C  0.69917475  0.71954550  0.93407246    -0.07100
C1878       C  0.70959120  0.75085180  0.92157252     0.13700
C1879       C  0.68366401  0.75434864  0.90678415    -0.24000
H1880       H  0.75335747  0.80283974  0.91250662     0.15000
H1881       H  0.71785179  0.69451926  0.95707161     0.15000
C1882       C  0.78798341  0.74331239  0.96208433    -0.23900
H1883       H  0.69667348  0.78033703  0.89790965     0.05300
H1884       H  0.66119119  0.75293147  0.91642445     0.08500
H1885       H  0.67305566  0.73252255  0.89455491     0.08500
H1886       H  0.79976307  0.76622627  0.97356767     0.08500
H1887       H  0.80971124  0.74366748  0.95218929     0.08500
H1888       H  0.77515687  0.71806072  0.97169949     0.05200
C1889       C  0.95725420  0.98856128  0.91402909    -0.20600
C1890       C  0.96165680  0.95848722  0.91759632    -0.07100
C1891       C  0.99665966  0.96445402  0.92080733     0.13700
C1892       C  0.02848983  0.49656537  0.92156050    -0.20600
C1893       C  0.52248105  0.52679725  0.91284007    -0.07100
C1894       C  0.49564704  0.51697560  0.89689773     0.13700
C1895       C  0.49484785  0.54452327  0.88219821    -0.24000
H1896       H  0.42815665  0.99147137  0.92418822     0.15000
H1897       H  0.05149762  0.50187220  0.93136088     0.15000
C1898       C  0.00400273  0.93400482  0.92412888    -0.23900
H1899       H  0.44540268  0.05033859  0.93166508     0.05300
H1900       H  0.52058676  0.55917220  0.87315858     0.08500
H1901       H  0.49061508  0.56379561  0.89190208     0.08500
H1902       H  0.99503939  0.91624276  0.90970970     0.08500
H1903       H  0.98970880  0.91838378  0.93877829     0.08500
H1904       H  0.03303108  0.94376973  0.92644940     0.05200
C1905       C  0.94463075  0.89156029  0.98799556    -0.20600
C1906       C  0.90803665  0.88165141  0.98830986    -0.07100
C1907       C  0.88994019  0.87356402  0.00827224     0.13700
C1908       C  0.90803517  0.87282678  0.02708785    -0.20600
C1909       C  0.94392246  0.87977308  0.02655979    -0.07100
C1910       C  0.96285436  0.89086356  0.00675621     0.13700
C1911       C  0.00145335  0.90015979  0.00495126    -0.24000
H1912       H  0.95863723  0.89807091  0.97254867     0.15000
H1913       H  0.89338435  0.86549834  0.04230809     0.15000
C1914       C  0.85116970  0.86380176  0.00955542    -0.23900
H1915       H  0.01162591  0.90727564  0.98805554     0.05300
H1916       H  0.00417067  0.87687333  0.01005313     0.08500
H1917       H  0.01847172  0.92363118  0.01535891     0.08500
H1918       H  0.83450572  0.83972049  0.99949137     0.08500
H1919       H  0.84825837  0.88653992  0.00352740     0.08500
H1920       H  0.84085641  0.85776061  0.02646129     0.05200
C1921       C  0.82109621  0.84672935  0.82928535    -0.20600
C1922       C  0.84900759  0.84644818  0.81731967    -0.07100
C1923       C  0.87820643  0.84809622  0.82861913     0.13700
C1924       C  0.87949778  0.85163712  0.85127216    -0.20600
C1925       C  0.85262953  0.85402893  0.86311433    -0.07100
C1926       C  0.82266223  0.85081430  0.85193238     0.13700
C1927       C  0.79220472  0.85132580  0.86366480    -0.24000
H1928       H  0.79841980  0.84522659  0.82070272     0.15000
H1929       H  0.90246336  0.85365153  0.85976649     0.15000
C1930       C  0.90894394  0.84800966  0.81694303    -0.23900
H1931       H  0.77033752  0.84717118  0.85240904     0.05300
H1932       H  0.80198932  0.87765879  0.87169614     0.08500
H1933       H  0.78073159  0.82955798  0.87598224     0.08500
H1934       H  0.92196881  0.87131486  0.80571752     0.08500
H1935       H  0.89888722  0.82269915  0.80765701     0.08500
H1936       H  0.92971607  0.84987244  0.82838146     0.05200
C1937       C  0.86362500  0.94622098  0.69431895    -0.20600
C1938       C  0.86480201  0.91386893  0.69417537    -0.07100
C1939       C  0.86866381  0.90054879  0.67410999     0.13700
C1940       C  0.86861445  0.91827275  0.65491291    -0.20600
C1941       C  0.86466263  0.94900385  0.65504001    -0.07100
C1942       C  0.86338469  0.96380304  0.67509323     0.13700
C1943       C  0.85986874  0.99685748  0.67631285    -0.24000
H1944       H  0.86173097  0.95739640  0.70967159     0.15000
H1945       H  0.87039347  0.90717881  0.63949295     0.15000
C1946       C  0.87111408  0.86690306  0.67266543    -0.23900
H1947       H  0.85830181  0.00431681  0.69334616     0.05300
H1948       H  0.83510776  0.99203126  0.66783093     0.08500
H1949       H  0.88355557  0.01982337  0.66858475     0.08500
H1950       H  0.84687761  0.84404911  0.68004395     0.08500
H1951       H  0.89544532  0.87085117  0.68128268     0.08500
H1952       H  0.87299724  0.85981146  0.65559378     0.05200
C1953       C  0.63504136  0.65753134  0.84886283    -0.20600
C1954       C  0.63254495  0.62879045  0.86132433    -0.07100
C1955       C  0.62783880  0.59786121  0.85056912     0.13700
C1956       C  0.62430442  0.59592180  0.82789962    -0.20600
C1957       C  0.62471454  0.62380401  0.81554531    -0.07100
C1958       C  0.63095747  0.65537288  0.82620058     0.13700
C1959       C  0.63360665  0.68688007  0.81387927    -0.24000
H1960       H  0.63861218  0.68135924  0.85708510     0.15000
H1961       H  0.61995777  0.57172018  0.81980873     0.15000
C1962       C  0.62441754  0.56602156  0.86290302    -0.23900
H1963       H  0.64003509  0.70988457  0.82474305     0.05300
H1964       H  0.60764406  0.67909140  0.80589083     0.08500
H1965       H  0.65514507  0.69603855  0.80145063     0.08500
H1966       H  0.60108048  0.55546382  0.87411188     0.08500
H1967       H  0.64928029  0.57414575  0.87231001     0.08500
H1968       H  0.62031256  0.54388506  0.85188879     0.05200
C1969       C  0.00540350  0.52380872  0.76737909    -0.20600
C1970       C  0.51614506  0.51738533  0.76039093    -0.07100
C1971       C  0.51624729  0.99425165  0.76696394     0.13700
C1972       C  0.97890540  0.95624606  0.75150770    -0.20600
C1973       C  0.95166179  0.95755174  0.76358351    -0.07100
C1974       C  0.96937066  0.49663682  0.76527529     0.13700
C1975       C  0.94049509  0.50314655  0.77415999    -0.24000
H1976       H  0.49259199  0.54995010  0.75135351     0.15000
H1977       H  0.97196293  0.93398259  0.74060775     0.15000
C1978       C  0.54581004  0.98707102  0.77347159    -0.23900
H1979       H  0.95192426  0.52953184  0.78241867     0.05300
H1980       H  0.92402628  0.48203836  0.78622469     0.08500
H1981       H  0.92324623  0.50305322  0.76077459     0.08500
H1982       H  0.56065215  0.00415118  0.78752212     0.08500
H1983       H  0.56444501  0.99273522  0.75964245     0.08500
H1984       H  0.53516646  0.95862651  0.77830619     0.05200
C1985       C  0.69875377  0.73155445  0.74984527    -0.20600
C1986       C  0.70378273  0.70252428  0.74410514    -0.07100
C1987       C  0.73848037  0.71026709  0.73794835     0.13700
C1988       C  0.76686807  0.74619819  0.73811651    -0.20600
C1989       C  0.76212715  0.77524566  0.74454324    -0.07100
C1990       C  0.72709470  0.76742315  0.75020838     0.13700
C1991       C  0.71906452  0.79632917  0.75696442    -0.24000
H1992       H  0.67225489  0.72612834  0.75463888     0.15000
H1993       H  0.79332736  0.75135856  0.73348790     0.15000
C1994       C  0.74578395  0.68103407  0.73086589    -0.23900
H1995       H  0.69008176  0.78533855  0.76042248     0.05300
H1996       H  0.72670199  0.81643256  0.74375122     0.08500
H1997       H  0.73403313  0.80956060  0.77196852     0.08500
H1998       H  0.72831137  0.66628168  0.71693368     0.08500
H1999       H  0.74055987  0.66215047  0.74448951     0.08500
H2000       H  0.77411723  0.69199578  0.72570765     0.05200
C2001       C  0.99255920  0.96975712  0.57487852    -0.20600
C2002       C  0.50213757  0.49371671  0.57957577    -0.07100
C2003       C  0.49527038  0.52146590  0.58494016     0.13700
C2004       C  0.95040796  0.49956259  0.56679216    -0.20600
C2005       C  0.94823579  0.98656486  0.58465142    -0.07100
C2006       C  0.95646720  0.96133976  0.57574768     0.13700
C2007       C  0.92771699  0.92561626  0.56729079    -0.24000
H2008       H  0.50263260  0.95489243  0.56512073     0.15000
H2009       H  0.94499613  0.52087167  0.56258940     0.15000
C2010       C  0.52486958  0.55817581  0.59154996    -0.23900
H2011       H  0.93922947  0.90976386  0.56032303     0.05300
H2012       H  0.91229700  0.92980910  0.55432718     0.08500
H2013       H  0.90939116  0.90959403  0.58068359     0.08500
H2014       H  0.54412856  0.57077161  0.57794515     0.08500
H2015       H  0.53905928  0.55591455  0.60596384     0.08500
H2016       H  0.51441156  0.57632437  0.59582324     0.05200
C2017       C  0.68142547  0.45760712  0.60623076    -0.20600
C2018       C  0.68474417  0.48808799  0.59523703    -0.07100
C2019       C  0.73801400  0.02415250  0.60824548     0.13700
C2020       C  0.76572874  0.01583797  0.60866365    -0.20600
C2021       C  0.75979324  0.98091820  0.60427756    -0.07100
C2022       C  0.70778502  0.44736831  0.60464888     0.13700
C2023       C  0.70294343  0.41485381  0.61679200    -0.24000
H2024       H  0.65775855  0.44127477  0.61598772     0.15000
H2025       H  0.79264256  0.03749258  0.61194069     0.15000
C2026       C  0.74681691  0.06205669  0.61302054    -0.23900
H2027       H  0.67760149  0.40195418  0.62631150     0.05300
H2028       H  0.72561735  0.42274351  0.62818728     0.08500
H2029       H  0.70203588  0.39474109  0.60517371     0.08500
H2030       H  0.73010346  0.06208053  0.62674902     0.08500
H2031       H  0.74184607  0.07411118  0.59846590     0.08500
H2032       H  0.77542274  0.07944223  0.61755081     0.05200
C2033       C  0.57144130  0.53706316  0.68558780    -0.20600
C2034       C  0.59896874  0.57276061  0.68896691    -0.07100
C2035       C  0.62555486  0.58970743  0.67296716     0.13700
C2036       C  0.62414064  0.57091871  0.65406976    -0.20600
C2037       C  0.59682236  0.53502273  0.65043959    -0.07100
C2038       C  0.56983078  0.51806007  0.66649022     0.13700
C2039       C  0.53928775  0.48028054  0.66362604    -0.24000
H2040       H  0.55177963  0.52356691  0.69833188     0.15000
H2041       H  0.64512100  0.58458626  0.64206992     0.15000
C2042       C  0.65610691  0.62750106  0.67613300    -0.23900
H2043       H  0.58343789  0.97590669  0.69132125     0.05300
H2044       H  0.54987049  0.46152869  0.66237807     0.08500
H2045       H  0.56499389  0.96851912  0.66453238     0.08500
H2046       H  0.67190395  0.62874780  0.69065290     0.08500
H2047       H  0.64529064  0.64590962  0.67841695     0.08500
H2048       H  0.67457006  0.63710073  0.66196850     0.05200
C2049       C  0.84481925  0.96183736  0.51824669    -0.20600
C2050       C  0.84400020  0.98910861  0.53053918    -0.07100
C2051       C  0.83918784  0.01519713  0.51966686     0.13700
C2052       C  0.83560768  0.01341944  0.49692781    -0.20600
C2053       C  0.83703007  0.98640189  0.48463943    -0.07100
C2054       C  0.84152510  0.96015963  0.49560683     0.13700
C2055       C  0.84459220  0.93128008  0.48362311    -0.24000
H2056       H  0.84869718  0.94172613  0.52644116     0.15000
H2057       H  0.83247601  0.03388561  0.48859677     0.15000
C2058       C  0.83731628  0.04450394  0.53186011    -0.23900
H2059       H  0.84893845  0.91358248  0.49483193     0.05300
H2060       H  0.86768740  0.94367050  0.47221949     0.08500
H2061       H  0.80468624  0.39200990  0.46342318     0.08500
H2062       H  0.86306269  0.06159705  0.54036872     0.08500
H2063       H  0.77443434  0.49758402  0.53013636     0.08500
H2064       H  0.83243903  0.06204449  0.52082842     0.05200
C2065       C  0.92797379  0.55351676  0.35446115    -0.20600
C2066       C  0.89320199  0.52297679  0.35349348    -0.07100
C2067       C  0.87717581  0.51100869  0.33303173     0.13700
C2068       C  0.89505946  0.53108299  0.31445997    -0.20600
C2069       C  0.92872430  0.56308934  0.31554825    -0.07100
C2070       C  0.94595269  0.57356298  0.33582856     0.13700
C2071       C  0.98242045  0.60646313  0.33813090    -0.24000
H2072       H  0.93792634  0.07849495  0.37349002     0.15000
H2073       H  0.88205377  0.52195198  0.29886958     0.15000
C2074       C  0.84058910  0.47821771  0.33069316    -0.23900
H2075       H  0.98507010  0.12668335  0.35585816     0.05300
H2076       H  0.98163717  0.63043867  0.33219564     0.08500
H2077       H  0.00244887  0.60307348  0.32863387     0.08500
H2078       H  0.82053997  0.48172895  0.34009793     0.08500
H2079       H  0.84122079  0.45420649  0.33670139     0.08500
H2080       H  0.83171506  0.47326599  0.31351937     0.05200
C2081       C  0.49336222  0.65774808  0.15776361    -0.20600
C2082       C  0.98849669  0.63634350  0.14687897    -0.07100
C2083       C  0.95751241  0.60825541  0.15670184     0.13700
C2084       C  0.95505817  0.60633747  0.17939616    -0.20600
C2085       C  0.98259506  0.63165724  0.19287173    -0.07100
C2086       C  0.49233999  0.65555251  0.18055861     0.13700
C2087       C  0.51962514  0.68684484  0.19363871    -0.24000
H2088       H  0.51474451  0.68147664  0.15000996     0.15000
H2089       H  0.93151896  0.58401798  0.18668693     0.15000
C2090       C  0.92756319  0.57922999  0.14356101    -0.23900
H2091       H  0.53804299  0.70969801  0.18310688     0.05300
H2092       H  0.53612049  0.67865734  0.20326091     0.08500
H2093       H  0.50575822  0.69633626  0.20471469     0.08500
H2094       H  0.93804482  0.56501975  0.13356978     0.08500
H2095       H  0.91554971  0.59123139  0.13291375     0.08500
H2096       H  0.90579383  0.55895104  0.15402039     0.05200
C2097       C  0.57095440  0.45090629  0.49214834    -0.20600
C2098       C  0.61191990  0.98185040  0.48441101    -0.07100
C2099       C  0.62130957  0.01472904  0.49459643     0.13700
C2100       C  0.62366658  0.01681510  0.51722000    -0.20600
C2101       C  0.59937294  0.47513210  0.52675954    -0.07100
C2102       C  0.56967276  0.44939455  0.51492086     0.13700
C2103       C  0.53594289  0.42161466  0.52609285    -0.24000
H2104       H  0.54776778  0.43140836  0.48312135     0.15000
H2105       H  0.62975437  0.04198806  0.52470203     0.15000
C2106       C  0.62774506  0.04760399  0.48207807    -0.23900
H2107       H  0.51504738  0.40406101  0.51428319     0.05300
H2108       H  0.52471172  0.43501580  0.53619773     0.08500
H2109       H  0.54205189  0.40430318  0.53651485     0.08500
H2110       H  0.60315618  0.04190360  0.47304996     0.08500
H2111       H  0.65053197  0.05581454  0.47066604     0.08500
H2112       H  0.63465663  0.07079476  0.49288054     0.05200
C2113       C  0.70877082  0.00518117  0.42289704    -0.20600
C2114       C  0.68233371  0.97327310  0.41309126    -0.07100
C2115       C  0.68983657  0.45319529  0.39573450     0.13700
C2116       C  0.72532144  0.45987317  0.39394085    -0.20600
C2117       C  0.75508488  0.49116595  0.40248941    -0.07100
C2118       C  0.74527678  0.01502994  0.42311300     0.13700
C2119       C  0.77134377  0.04856105  0.43507864    -0.24000
H2120       H  0.70059220  0.02234537  0.43093685     0.15000
H2121       H  0.72954254  0.43964746  0.38627317     0.15000
C2122       C  0.65963860  0.41922518  0.38628281    -0.23900
H2123       H  0.75781633  0.06213528  0.44257246     0.05300
H2124       H  0.79196567  0.06789346  0.42367758     0.08500
H2125       H  0.78439626  0.04169037  0.44828768     0.08500
H2126       H  0.64472832  0.42595287  0.37424408     0.08500
H2127       H  0.64111416  0.40233813  0.39936229     0.08500
H2128       H  0.66963974  0.40306095  0.37793932     0.05200
C2129       C  0.00967835  0.02215084  0.42309505    -0.20600
C2130       C  0.49302146  0.96308980  0.43232864    -0.07100
C2131       C  0.46187264  0.44766031  0.43157972     0.13700
C2132       C  0.92122876  0.43291473  0.41757731    -0.20600
C2133       C  0.92553316  0.46540081  0.42611122    -0.07100
C2134       C  0.98097873  0.02893667  0.42368548     0.13700
C2135       C  0.98735091  0.06528804  0.41674360    -0.24000
H2136       H  0.03563713  0.04385130  0.41802856     0.15000
H2137       H  0.40593158  0.43114927  0.43479387     0.15000
C2138       C  0.45536391  0.41061887  0.43670531    -0.23900
H2139       H  0.01572701  0.08359418  0.41199269     0.05300
H2140       H  0.98093888  0.07805429  0.43032333     0.08500
H2141       H  0.97028482  0.06238507  0.40254534     0.08500
H2142       H  0.47209892  0.41186072  0.45073091     0.08500
H2143       H  0.46195008  0.39939096  0.42238306     0.08500
H2144       H  0.42687260  0.39184973  0.44100348     0.05200
C2145       C  0.95626943  0.75190047  0.27228648    -0.20600
C2146       C  0.99007649  0.77982920  0.26494511    -0.07100
C2147       C  0.49804257  0.76429139  0.25302678     0.13700
C2148       C  0.48867355  0.72785638  0.25230204    -0.20600
C2149       C  0.97225518  0.70633316  0.26436573    -0.07100
C2150       C  0.94700763  0.71550007  0.27192867     0.13700
C2151       C  0.91065990  0.68725446  0.28004902    -0.24000
H2152       H  0.93642737  0.75837199  0.27810383     0.15000
H2153       H  0.50648086  0.72069975  0.24406748     0.15000
C2154       C  0.53156515  0.79167792  0.24149805    -0.23900
H2155       H  0.89473510  0.69924580  0.28620504     0.05300
H2156       H  0.91385043  0.67190490  0.29350697     0.08500
H2157       H  0.89526577  0.66866505  0.26668923     0.08500
H2158       H  0.55044832  0.81158222  0.25330457     0.08500
H2159       H  0.52458588  0.80553364  0.22883902     0.08500
H2160       H  0.54561844  0.77911964  0.23340066     0.05200
C2161       C  0.98829276  0.01291074  0.26895813    -0.20600
C2162       C  0.96615834  0.51827847  0.24514890    -0.07100
C2163       C  0.42777639  0.47858667  0.24306792     0.13700
C2164       C  0.43648068  0.45112655  0.24287810    -0.20600
C2165       C  0.99547872  0.96816463  0.24929908    -0.07100
C2166       C  0.00198913  0.98953344  0.26787640     0.13700
C2167       C  0.02173435  0.98630852  0.28711587    -0.24000
H2168       H  0.99360298  0.02948463  0.28324374     0.15000
H2169       H  0.41470609  0.42362664  0.24408684     0.15000
C2170       C  0.38903925  0.46874551  0.24523624    -0.23900
H2171       H  0.02512761  0.00551111  0.30016809     0.05300
H2172       H  0.04876420  0.99172995  0.28205589     0.08500
H2173       H  0.00632559  0.95885068  0.29395162     0.08500
H2174       H  0.38115243  0.47921737  0.23108685     0.08500
H2175       H  0.38512024  0.48018252  0.26043181     0.08500
H2176       H  0.37082516  0.43920938  0.24584435     0.05200
C2177       C  0.51590744  0.89370061  0.35902455    -0.20600
C2178       C  0.54072373  0.93090426  0.36131241    -0.07100
C2179       C  0.54519850  0.95372383  0.34355057     0.13700
C2180       C  0.52717066  0.93859302  0.32393113    -0.20600
C2181       C  0.50412343  0.90135669  0.32148013    -0.07100
C2182       C  0.49777675  0.87879583  0.33942918     0.13700
C2183       C  0.47330050  0.83883187  0.33759613    -0.24000
H2184       H  0.51099866  0.87572274  0.37254790     0.15000
H2185       H  0.08404184  0.94009449  0.30766050     0.15000
C2186       C  0.12251093  0.97823229  0.34154682    -0.23900
H2187       H  0.47145451  0.82484670  0.35310571     0.05300
H2188       H  0.48351474  0.82787159  0.32493013     0.08500
H2189       H  0.44591004  0.83296824  0.33314116     0.08500
H2190       H  0.59730889  0.00031140  0.34834745     0.08500
H2191       H  0.13169190  0.00692637  0.34475298     0.08500
H2192       H  0.13586836  0.97666497  0.32650120     0.05200
C2193       C  0.00880010  0.89455013  0.18197110    -0.20600
C2194       C  0.98757221  0.86220777  0.19327756    -0.07100
C2195       C  0.45036587  0.83003158  0.18219558     0.13700
C2196       C  0.97764391  0.83018176  0.15935540    -0.20600
C2197       C  0.99832622  0.86275007  0.14798878    -0.07100
C2198       C  0.01443244  0.89525017  0.15958594     0.13700
C2199       C  0.03580305  0.93087244  0.14827761    -0.24000
H2200       H  0.02131874  0.91964749  0.19086815     0.15000
H2201       H  0.43389922  0.80707221  0.15044765     0.15000
C2202       C  0.42225321  0.79667181  0.19350151    -0.23900
H2203       H  0.04605163  0.95371284  0.15979102     0.05300
H2204       H  0.01844057  0.93415073  0.13635459     0.08500
H2205       H  0.05914311  0.93202369  0.13982441     0.08500
H2206       H  0.40344244  0.80262406  0.20243948     0.08500
H2207       H  0.43528197  0.78690288  0.20504064     0.08500
H2208       H  0.40630977  0.77476489  0.18183550     0.05200
loop_ 
_geom_bond_atom_site_label_1 
_geom_bond_atom_site_label_2 
_geom_bond_distance 
_geom_bond_site_symmetry_2 
_ccdc_geom_bond_type 
O1           Ni9   1.953       .  S
O1           C11   1.291   1_455  A
O2           Ni9   1.955       .  S
O2           C12   1.292   1_455  A
O3           Ni9   1.867       .  S
O3         C1117   1.269   1_455  A
O4           Ni9   1.875       .  S
O4           C14   1.270   1_455  A
O5          Ni10   1.957       .  S
O5         C1118   1.291       .  A
O6          Ni10   1.951       .  S
O6           C13   1.291       .  A
O7          Ni10   1.889       .  S
O7         C1116   1.273       .  A
O8          Ni10   1.876       .  S
O8         C1115   1.270       .  A
Ni9       Ni1114   2.382   1_455  S
Ni10      Ni1113   2.378       .  S
C11        O1112   1.271       .  A
C11        C1613   1.496       .  S
C12        O1111   1.272       .  A
C12        C1594   1.499       .  S
C13        O1107   1.269       .  A
C13         C538   1.480       .  S
C14        O1109   1.291       .  A
C14         C525   1.480   1_655  S
O15         Ni23   1.953       .  S
O15          C25   1.290       .  A
O16         Ni23   1.956       .  S
O16          C26   1.291       .  A
O17         Ni23   1.880       .  S
O17          C27   1.271       .  A
O18         Ni23   1.887       .  S
O18          C28   1.274       .  A
O19         Ni24   1.952       .  S
O19          C28   1.290       .  A
O20         Ni24   1.943       .  S
O20          C27   1.289       .  A
O21         Ni24   1.900       .  S
O21          C26   1.276       .  A
O22         Ni24   1.884       .  S
O22          C25   1.272       .  A
Ni23        Ni24   2.382       .  S
C25         C474   1.484   1_455  S
C26         C458   1.506       .  S
C27         C442   1.476       .  S
C28         C522   1.496       .  S
O29         Ni37   1.959       .  S
O29          C39   1.293       .  A
O30         Ni37   1.959       .  S
O30          C40   1.292       .  A
O31         Ni37   1.871       .  S
O31          C41   1.268       .  A
O32         Ni37   1.874       .  S
O32          C42   1.270       .  A
O33         Ni38   1.970       .  S
O33          C42   1.295       .  A
O34         Ni38   1.957       .  S
O34          C41   1.292       .  A
O35         Ni38   1.891       .  S
O35          C40   1.273       .  A
O36         Ni38   1.879       .  S
O36          C39   1.269       .  A
Ni37        Ni38   2.382       .  S
C39         C506   1.482       .  S
C40         C493   1.496       .  S
C41         C429   1.475       .  S
C42         C413   1.501       .  S
O43         Ni51   1.963       .  S
O43          C53   1.293   1_545  A
O44         Ni51   1.966       .  S
O44          C54   1.294       .  A
O45         Ni51   1.872       .  S
O45          C55   1.269   1_545  A
O46         Ni51   1.890       .  S
O46          C56   1.272       .  A
O47        Ni604   1.957       .  S
O47          C56   1.292   1_565  A
O48         Ni52   1.955       .  S
O48         C607   1.290       .  A
O49         Ni52   1.902       .  S
O49         C606   1.276       .  A
O50         Ni52   1.887       .  S
O50         C605   1.273       .  A
Ni51       Ni604   2.381   1_545  S
Ni52        O599   1.961       .  S
Ni52       Ni603   2.382       .  S
C53         O602   1.271       .  A
C53         C477   1.494       .  S
C54         O601   1.273   1_545  A
C54         C461   1.509       .  S
C55         O600   1.291       .  A
C55         C949   1.479       .  S
C56         C410   1.490       .  S
O57         Ni65   1.952       .  S
O57          C67   1.291       .  A
O58         Ni65   1.956       .  S
O58          C68   1.291       .  A
O59         Ni65   1.876       .  S
O59          C69   1.271   1_545  A
O60         Ni65   1.884       .  S
O60          C70   1.272       .  A
O61        Ni618   1.959       .  S
O61          C70   1.292   1_565  A
O62         Ni66   1.946       .  S
O62         C621   1.289       .  A
O63         Ni66   1.890       .  S
O63         C620   1.274       .  A
O64         Ni66   1.884       .  S
O64         C619   1.273       .  A
Ni65       Ni618   2.383   1_545  S
Ni66        O613   1.949       .  S
Ni66       Ni617   2.381       .  S
C67         O616   1.270   1_545  A
C67         C346   1.483       .  S
C68         O615   1.273   1_545  A
C68         C362   1.492   1_545  S
C69         O614   1.291       .  A
C69         C445   1.489       .  S
C70         C381   1.493       .  S
O71         Ni79   1.957       .  S
O71          C81   1.292       .  A
O72         Ni79   1.960       .  S
O72          C82   1.292       .  A
O73         Ni79   1.876       .  S
O73          C83   1.270       .  A
O74         Ni79   1.877       .  S
O74          C84   1.270       .  A
O75         Ni80   1.966       .  S
O75          C84   1.294       .  A
O76         Ni80   1.957       .  S
O76          C83   1.292       .  A
O77         Ni80   1.892       .  S
O77          C82   1.273       .  A
O78         Ni80   1.882       .  S
O78          C81   1.270       .  A
Ni79        Ni80   2.385       .  S
C81         C314   1.481       .  S
C82         C330   1.493       .  S
C83         C301   1.479       .  S
C84         C378   1.491       .  S
O85         Ni93   1.956       .  S
O85          C95   1.292       .  A
O86         Ni93   1.961       .  S
O86          C96   1.293       .  A
O87         Ni93   1.887       .  S
O87          C97   1.271       .  A
O88         Ni93   1.888       .  S
O88          C98   1.272       .  A
O89         Ni94   1.958       .  S
O89          C98   1.290       .  A
O90         Ni94   1.953       .  S
O90          C97   1.290       .  A
O91         Ni94   1.887       .  S
O91          C96   1.273       .  A
O92         Ni94   1.870       .  S
O92          C95   1.270       .  A
Ni93        Ni94   2.383       .  S
C95         C349   1.493       .  S
C96         C365   1.499       .  S
C97         C394   1.475       .  S
C98         C285   1.480       .  S
O99        Ni107   1.943       .  S
O99         C109   1.289       .  A
O100       Ni107   1.944       .  S
O100        C110   1.289       .  A
O101       Ni107   1.872       .  S
O101        C111   1.270       .  A
O102       Ni107   1.887       .  S
O102        C112   1.273       .  A
O103       Ni108   1.964       .  S
O103        C112   1.293       .  A
O104       Ni108   1.953       .  S
O104        C111   1.291       .  A
O105       Ni108   1.903       .  S
O105        C110   1.277       .  A
O106       Ni108   1.889       .  S
O106        C109   1.273       .  A
Ni107      Ni108   2.381       .  S
C109        C317   1.483       .  S
C110        C333   1.505       .  S
C111        C266   1.483       .  S
C112        C282   1.500       .  S
O113       Ni121   1.954       .  S
O113        C123   1.291       .  A
O114       Ni121   1.956       .  S
O114        C124   1.291       .  A
O115       Ni121   1.885       .  S
O115        C125   1.272       .  A
O116       Ni121   1.885       .  S
O116        C126   1.272       .  A
O117       Ni122   1.955       .  S
O117        C126   1.291       .  A
O118       Ni122   1.946       .  S
O118        C125   1.290       .  A
O119       Ni122   1.886       .  S
O119        C124   1.273       .  A
O120       Ni122   1.885       .  S
O120        C123   1.271       .  A
Ni121      Ni122   2.384       .  S
C123        C234   1.481       .  S
C124        C218   1.491       .  S
C125        C269   1.484       .  S
C126        C250   1.490       .  S
O127       Ni135   1.948       .  S
O127        C137   1.290       .  A
O128       Ni135   1.951       .  S
O128        C138   1.290       .  A
O129       Ni135   1.874       .  S
O129        C139   1.270       .  A
O130       Ni135   1.881       .  S
O130        C140   1.272       .  A
O131       Ni136   1.956       .  S
O131        C140   1.291       .  A
O132       Ni136   1.952       .  S
O132        C139   1.291       .  A
O133       Ni136   1.880       .  S
O133        C138   1.272       .  A
O134       Ni136   1.877       .  S
O134        C137   1.270       .  A
Ni135      Ni136   2.384       .  S
C137        C205   1.482       .  S
C138        C186   1.491       .  S
C139        C541   1.483       .  S
C140        C253   1.488       .  S
O141       Ni149   1.952       .  S
O141        C151   1.291       .  A
O142       Ni149   1.951       .  S
O142        C152   1.291       .  A
O143       Ni149   1.874       .  S
O143        C153   1.269       .  A
O144       Ni149   1.883       .  S
O144        C154   1.271       .  A
O145       Ni150   1.957       .  S
O145        C154   1.291       .  A
O146       Ni150   1.954       .  S
O146        C153   1.291       .  A
O147       Ni150   1.893       .  S
O147        C152   1.274       .  A
O148       Ni150   1.880       .  S
O148        C151   1.272       .  A
Ni149      Ni150   2.382       .  S
C151        C237   1.498       .  S
C152        C221   1.502       .  S
C153        C298   1.479       .  S
C154        C170   1.485       .  S
O155       Ni163   1.966       .  S
O155        C165   1.294   1_455  A
O156       Ni163   1.962       .  S
O156        C166   1.293   1_455  A
O157       Ni163   1.873       .  S
O157       C1271   1.269   1_455  A
O158       Ni163   1.884       .  S
O158        C168   1.272       .  A
O159       Ni164   1.949       .  S
O159       C1272   1.290       .  A
O160       Ni164   1.948       .  S
O160        C167   1.290       .  A
O161       Ni164   1.884       .  S
O161       C1270   1.273       .  A
O162       Ni164   1.875       .  S
O162       C1269   1.272       .  A
Ni163     Ni1268   2.380   1_455  S
Ni164     Ni1267   2.383       .  S
C165       O1266   1.270       .  A
C165       C1306   1.500       .  S
C166       O1265   1.272       .  A
C166       C1293   1.497       .  S
C167       O1261   1.270       .  A
C167        C426   1.473       .  S
C168       O1263   1.292   1_455  A
C168        C173   1.501       .  S
C169        C170   1.410       .  A
C169        C174   1.407   1_556  A
C169        H176   1.085       .  S
C170        C171   1.404   1_556  A
C171        C172   1.408       .  A
C171        C178   1.506       .  S
C172        C173   1.420       .  A
C172        H177   1.084       .  S
C173        C174   1.413       .  A
C174        C175   1.506   1_455  S
C175        H179   1.111   1_554  S
C175        H180   1.110       .  S
C175       H1285   1.110       .  S
C178        H182   1.111   1_554  S
C178        H183   1.110       .  S
C178        H184   1.111       .  S
H181       C1279   1.110       .  S
C185        C186   1.413       .  A
C185        C190   1.404       .  A
C185        H192   1.084       .  S
C186       C1291   1.408       .  A
C187        C188   1.411       .  A
C187       C1290   1.415       .  A
C187        C194   1.507       .  S
C188       C1293   1.413       .  A
C188        H193   1.084       .  S
C189       C1270   1.498       .  S
C189        C190   1.413       .  A
C189       C1292   1.418       .  A
C190        C191   1.508       .  S
C191        H195   1.111       .  S
C191        H196   1.110       .  S
C191        H197   1.110       .  S
C194        H198   1.110       .  S
C194        H199   1.110       .  S
C194        H200   1.111       .  S
C201        C202   1.417   1_565  A
C201        C758   1.401       .  A
C201        H208   1.083   1_565  S
C202       C1269   1.494       .  S
C202       C1307   1.412       .  A
C203       C1306   1.413   1_455  A
C203        C756   1.410   1_545  A
C203        C210   1.506       .  S
C204        C755   1.403       .  A
C204       C1309   1.418   1_455  A
C204        H209   1.083       .  S
C205        C206   1.405       .  A
C205       C1308   1.413       .  A
C206        C753   1.399       .  A
C206        C207   1.508       .  S
C207        H211   1.111       .  S
C207        H212   1.110       .  S
C207        H213   1.110       .  S
C210        H214   1.111       .  S
C210        H215   1.110       .  S
C210        H216   1.111       .  S
C217        C218   1.410       .  A
C217        C222   1.406       .  A
C217        H224   1.084       .  S
C218        C219   1.408       .  A
C219        C220   1.410       .  A
C219        C226   1.506       .  S
C220        C221   1.417       .  A
C220        H225   1.083       .  S
C221        C222   1.415       .  A
C222        C223   1.507       .  S
C223        H227   1.111       .  S
C223        H228   1.110       .  S
C223        H229   1.110       .  S
C226        H230   1.111       .  S
C226        H231   1.110       .  S
C226        H232   1.111       .  S
C233        C234   1.411       .  A
C233       C1894   1.412       .  A
C233       H1344   1.084       .  S
C234        C235   1.407       .  A
C235        C788   1.400       .  A
C235        C242   1.505       .  S
C236        C787   1.407   1_545  A
C236       C1341   1.412       .  A
C236        H241   1.084       .  S
C237        C238   1.412   1_455  A
C237       C1340   1.417   1_545  A
C238       C1889   1.405   1_545  A
C238        C239   1.507       .  S
C239        H244   1.110       .  S
C239        H245   1.110       .  S
C239        H795   1.111       .  S
H240       C1337   1.085       .  S
C242        H246   1.110       .  S
C242        H247   1.107       .  S
C242        H248   1.111       .  S
H243        C791   1.111       .  S
C249        C250   1.414       .  A
C249        C254   1.406   1_556  A
C249        H256   1.084       .  S
C250        C251   1.409       .  A
C251        C252   1.406   1_556  A
C251        C258   1.506       .  S
C252        C253   1.413       .  A
C252        H257   1.084       .  S
C253        C254   1.407       .  A
C254        C255   1.506       .  S
C255        H259   1.111   1_554  S
C255        H260   1.110       .  S
C255        H261   1.110       .  S
C258        H262   1.111       .  S
C258        H263   1.110       .  S
C258        H264   1.111   1_556  S
C265        C266   1.412       .  A
C265        C270   1.403       .  A
C265        H272   1.084       .  S
C266        C267   1.409       .  A
C267        C268   1.405       .  A
C267        C274   1.506       .  S
C268        C269   1.412       .  A
C268        H273   1.084       .  S
C269        C270   1.409       .  A
C270        C271   1.508       .  S
C271        H275   1.111       .  S
C271        H276   1.109       .  S
C271        H277   1.111       .  S
C274        H278   1.110       .  S
C274        H279   1.110       .  S
C274        H280   1.111       .  S
C281        C282   1.412       .  A
C281        C286   1.404       .  A
C281        H288   1.083       .  S
C282        C283   1.417       .  A
C283        C284   1.416       .  A
C283        C290   1.506       .  S
C284        C285   1.409       .  A
C284        H289   1.084       .  S
C285        C286   1.406       .  A
C286        C287   1.507       .  S
C287        H291   1.111       .  S
C287        H292   1.110       .  S
C287        H293   1.110       .  S
C290        H294   1.109       .  S
C290        H295   1.111       .  S
C290        H296   1.111       .  S
C297        C298   1.413       .  A
C297        C302   1.407       .  A
C297        H304   1.084       .  S
C298        C299   1.409       .  A
C299        C300   1.403       .  A
C299        C306   1.508       .  S
C300        C301   1.410       .  A
C300        H305   1.084       .  S
C301        C302   1.406       .  A
C302        C303   1.506       .  S
C303        H307   1.111       .  S
C303        H308   1.110       .  S
C303        H309   1.111       .  S
C306        H310   1.111       .  S
C306        H311   1.110       .  S
C306        H312   1.111       .  S
C313        C318   1.403       .  A
C313       C1418   1.418       .  A
C313       H1424   1.083       .  S
C314       C1417   1.412   1_455  A
C314        C867   1.406   1_545  A
C315        C866   1.408       .  A
C315       C1420   1.402   1_455  A
C315        C322   1.507       .  S
C316        C317   1.413       .  A
C316       C1419   1.411       .  A
C316        H321   1.084       .  S
C317        C870   1.405       .  A
C318        C869   1.406   1_545  A
C318        C319   1.508       .  S
C319        H323   1.111       .  S
C319        H324   1.110       .  S
C319        H325   1.111   1_545  S
H320       C1417   1.084   1_455  S
C322        H326   1.110       .  S
C322        H327   1.109       .  S
C322        H328   1.111       .  S
C329        C330   1.408       .  A
C329        C334   1.408       .  A
C329        H336   1.085       .  S
C330        C331   1.409       .  A
C331        C332   1.411       .  A
C331        C338   1.506       .  S
C332        C333   1.417       .  A
C332        H337   1.084       .  S
C333        C334   1.418       .  A
C334        C335   1.508       .  S
C335        H339   1.111       .  S
C335        H340   1.110       .  S
C335        H341   1.110       .  S
C338        H342   1.111       .  S
C338        H343   1.110       .  S
C338        H344   1.111       .  S
C345        C350   1.407       .  A
C345       C2002   1.413       .  A
C345       H1456   1.084       .  S
C346        C347   1.405       .  A
C346       C2001   1.413   1_445  A
C347       C1452   1.400   1_455  A
C347        C354   1.508       .  S
C348       C1451   1.402       .  A
C348        C901   1.417   1_545  A
C348        H353   1.083       .  S
C349        C350   1.411       .  A
C349        C900   1.417       .  A
C350        C351   1.506       .  S
C351        H355   1.111       .  S
C351        H356   1.111       .  S
C351        H357   1.110       .  S
H352       C1449   1.083       .  S
C354        H358   1.110       .  S
C354        H359   1.110       .  S
C354        H360   1.111       .  S
C361        C362   1.411       .  A
C361        C366   1.409       .  A
C361        H368   1.084       .  S
C362        C915   1.407   1_565  A
C363        C364   1.408       .  A
C363        C914   1.414       .  A
C363        C370   1.507       .  S
C364        C365   1.414       .  A
C364        H369   1.083       .  S
C365        C918   1.410       .  A
C366        C917   1.414       .  A
C366        C367   1.506       .  S
C367        H371   1.111       .  S
C367        H372   1.110       .  S
C367        H373   1.111       .  S
C370        H374   1.110       .  S
C370        H375   1.110       .  S
C370        H376   1.111       .  S
C377        C378   1.415       .  A
C377        C382   1.406       .  A
C377        H384   1.083       .  S
C378        C379   1.406       .  A
C379        C380   1.409       .  A
C379        C386   1.506       .  S
C380        C381   1.417       .  A
C380        H385   1.084       .  S
C381        C382   1.407       .  A
C382        C383   1.506   1_545  S
C383        H388   1.110       .  S
C383        H939   1.111       .  S
C383        H941   1.110       .  S
C386        H390   1.111       .  S
C386        H391   1.110       .  S
C386        H392   1.111       .  S
H387        C935   1.111       .  S
H389        C935   1.110       .  S
C393        C394   1.404       .  A
C393        C398   1.404       .  A
C393        H400   1.085       .  S
C394        C395   1.409       .  A
C395        C396   1.409       .  A
C395        C402   1.505       .  S
C396        C397   1.408       .  A
C396        H401   1.084       .  S
C397        C607   1.476       .  S
C397        C398   1.412       .  A
C398        C399   1.507       .  S
C399        H403   1.111       .  S
C399        H404   1.109       .  S
C399        H957   1.110       .  S
C402        H406   1.110       .  S
C402        H408   1.111       .  S
C402        H959   1.111       .  S
H405        C951   1.110       .  S
H407        C954   1.111       .  S
C409        C410   1.415       .  A
C409        C414   1.413       .  A
C409        H968   1.084       .  S
C410        C411   1.405       .  A
C411        C412   1.404       .  A
C411        C418   1.507   1_545  S
C412        C413   1.418       .  A
C412        H417   1.083       .  S
C413        C414   1.411       .  A
C414        C415   1.505       .  S
C415        H420   1.110       .  S
C415        H421   1.110       .  S
C415        H971   1.111       .  S
H416        C961   1.084       .  S
C418        H422   1.111       .  S
C418        H423   1.110       .  S
C418        H424   1.111       .  S
H419        C967   1.111       .  S
C425        C430   1.406       .  A
C425       C1530   1.411       .  A
C425        H432   1.084   1_655  S
C426        C427   1.408       .  A
C426       C1529   1.411       .  A
C427        C428   1.401       .  A
C427        C434   1.508       .  S
C428        C429   1.409       .  A
C428        H433   1.085       .  S
C429       C1534   1.407       .  A
C430       C1533   1.407       .  A
C430        C431   1.506   1_655  S
C431        H435   1.111       .  S
C431        H436   1.110       .  S
C431        H437   1.111   1_455  S
C434        H438   1.111       .  S
C434        H439   1.110       .  S
C434        H440   1.111       .  S
C441        C446   1.402       .  A
C441        C994   1.414       .  A
C441        H448   1.083       .  S
C442        C443   1.406       .  A
C442        C993   1.410       .  A
C443        C444   1.402       .  A
C443        C450   1.507       .  S
C444        C997   1.411       .  A
C444        H449   1.084       .  S
C445        C446   1.410       .  A
C445        C996   1.416   1_565  A
C446        C447   1.508       .  S
C447        H451   1.111       .  S
C447        H452   1.111       .  S
C447        H453   1.110       .  S
C450        H454   1.110       .  S
C450        H455   1.111       .  S
C450        H456   1.111       .  S
C457        C458   1.414       .  A
C457        C462   1.411       .  A
C457        H464   1.083       .  S
C458       C1011   1.413       .  A
C459        C460   1.412       .  A
C459       C1010   1.409       .  A
C459        C466   1.506       .  S
C460        C461   1.419   1_565  A
C460        H465   1.083       .  S
C461       C1014   1.415       .  A
C462       C1013   1.416       .  A
C462        C463   1.507       .  S
C463        H467   1.111       .  S
C463        H468   1.110       .  S
C463        H469   1.110       .  S
C466        H470   1.110       .  S
C466        H471   1.110       .  S
C466        H472   1.111       .  S
C473        C478   1.403       .  A
C473       C1578   1.417       .  A
C473        H480   1.083       .  S
C474       C1577   1.410       .  A
C474       C1027   1.406       .  A
C475       C1026   1.413   1_655  A
C475       C1580   1.408       .  A
C475        C482   1.506       .  S
C476        C477   1.414       .  A
C476       C1579   1.401       .  A
C476       H1585   1.084       .  S
C477       C1030   1.413   1_565  A
C478       C1029   1.408       .  A
C478        C479   1.508       .  S
C479        H483   1.111       .  S
C479        H484   1.110       .  S
C479        H485   1.110       .  S
H481       C1580   1.084       .  S
C482        H486   1.110       .  S
C482        H487   1.110       .  S
C482        H488   1.111       .  S
C489        C490   1.419       .  A
C489        C494   1.409       .  A
C489        H496   1.083       .  S
C490       C1116   1.507       .  S
C490       C1595   1.416       .  A
C491        C492   1.406   1_455  A
C491       C1594   1.409   1_455  A
C491        C498   1.508       .  S
C492       C1597   1.419       .  A
C492        H497   1.083   1_655  S
C493        C494   1.408       .  A
C493       C1596   1.413       .  A
C494        C495   1.506       .  S
C495        H499   1.111       .  S
C495        H500   1.110       .  S
C495        H501   1.110       .  S
C498        H502   1.110       .  S
C498        H503   1.110       .  S
C498        H504   1.111       .  S
C505        C510   1.405       .  A
C505       C1058   1.416       .  A
C505        H512   1.084       .  S
C506       C1057   1.413       .  A
C506       C1611   1.407   1_545  A
C507        C508   1.411       .  A
C507       C1610   1.410   1_565  A
C507        C514   1.505       .  S
C508       C2165   1.409       .  A
C508        H513   1.084       .  S
C509       C1115   1.498       .  S
C509        C510   1.410       .  A
C509       C2164   1.418       .  A
C510        C511   1.507       .  S
C511        H515   1.111       .  S
C511        H516   1.110       .  S
C511        H517   1.110       .  S
C514        H518   1.110   1_565  S
C514        H519   1.110       .  S
C514        H520   1.111       .  S
C521        C522   1.417       .  A
C521        C526   1.406   1_455  A
C521        H528   1.083   1_455  S
C522        C523   1.413       .  A
C523        C524   1.407       .  A
C523       C1634   1.506       .  S
C524        C525   1.410       .  A
C524       H1633   1.085       .  S
C525        C526   1.403   1_455  A
C526        C527   1.506       .  S
C527        H531   1.111       .  S
C527        H532   1.111       .  S
C527        H533   1.110       .  S
H529       C1628   1.083       .  S
C530       C1627   1.506       .  S
C530        H535   1.110       .  S
C530        H536   1.111       .  S
C530       H1638   1.111       .  S
H534       C1634   1.110       .  S
C537        C538   1.413       .  A
C537        C542   1.406       .  A
C537        H544   1.084       .  S
C538       C1643   1.408       .  A
C539       C1642   1.407       .  A
C539       C1644   1.404       .  A
C539        C546   1.506       .  S
C540        C541   1.412       .  A
C540       C1643   1.401       .  A
C540       H1649   1.084       .  S
C541        C542   1.408       .  A
C542        C543   1.507       .  S
C543        H547   1.111       .  S
C543        H548   1.110       .  S
C543        H549   1.111       .  S
H545       C1644   1.084       .  S
C546        H550   1.110       .  S
C546        H551   1.111       .  S
C546        H552   1.111       .  S
O553       Ni561   1.958       .  S
O553        C563   1.292   1_455  A
O554       Ni561   1.954       .  S
O554        C564   1.291   1_455  A
O555       Ni561   1.862       .  S
O555       C1669   1.267   1_455  A
O556       Ni561   1.867       .  S
O556        C566   1.269       .  A
O557       Ni562   1.962       .  S
O557       C1670   1.292       .  A
O558       Ni562   1.959       .  S
O558        C565   1.292       .  A
O559       Ni562   1.885       .  S
O559       C1668   1.271       .  A
O560       Ni562   1.872       .  S
O560       C1667   1.270       .  A
Ni561     Ni1666   2.380   1_455  S
Ni562     Ni1665   2.383       .  S
C563       O1664   1.268       .  A
C563       C2165   1.470       .  S
C564       O1663   1.273       .  A
C564       C2146   1.504       .  S
C565       O1659   1.269       .  A
C565       C1090   1.484       .  S
C566       O1661   1.295   1_455  A
C566       C1077   1.507       .  S
O567       Ni575   1.960       .  S
O567        C577   1.293       .  A
O568       Ni575   1.967       .  S
O568        C578   1.294       .  A
O569       Ni575   1.874       .  S
O569        C579   1.270       .  A
O570       Ni575   1.880       .  S
O570        C580   1.269       .  A
O571       Ni576   1.959   1_565  S
O571        C580   1.292       .  A
O572       Ni576   1.955       .  S
O572        C579   1.291   1_545  A
O573       Ni576   1.891       .  S
O573        C578   1.273   1_545  A
O574       Ni576   1.879       .  S
O574        C577   1.271   1_545  A
Ni575      Ni576   2.381   1_565  S
C577       C1026   1.501       .  S
C578       C1010   1.499       .  S
C579        C994   1.490       .  S
C580       C1074   1.478       .  S
O581       Ni589   1.963       .  S
O581        C591   1.293       .  A
O582       Ni589   1.967       .  S
O582        C592   1.294       .  A
O583       Ni589   1.877       .  S
O583        C593   1.270       .  A
O584       Ni589   1.891       .  S
O584        C594   1.273       .  A
O585       Ni590   1.967       .  S
O585        C594   1.294       .  A
O586       Ni590   1.959       .  S
O586        C593   1.292       .  A
O587       Ni590   1.887       .  S
O587        C592   1.272       .  A
O588       Ni590   1.873       .  S
O588        C591   1.270       .  A
Ni589      Ni590   2.381       .  S
C591       C1058   1.496       .  S
C592       C1045   1.496       .  S
C593        C981   1.487       .  S
C594        C965   1.503       .  S
O595       Ni603   1.950       .  S
O595        C605   1.290       .  A
O596       Ni603   1.953       .  S
O596        C606   1.291       .  A
O597       Ni603   1.886       .  S
O597        C607   1.271       .  A
O598       Ni603   1.897       .  S
O598        C608   1.274       .  A
O599        C608   1.292       .  A
O600       Ni604   1.953       .  S
O601       Ni604   1.888       .  S
O602       Ni604   1.875       .  S
C605       C1029   1.489       .  S
C606       C1013   1.510       .  S
C608        C962   1.501       .  S
O609       Ni617   1.952       .  S
O609        C619   1.290       .  A
O610       Ni617   1.954       .  S
O610        C620   1.292       .  A
O611       Ni617   1.876       .  S
O611        C621   1.271       .  A
O612       Ni617   1.893       .  S
O612        C622   1.273       .  A
O613        C622   1.290       .  A
O614       Ni618   1.950       .  S
O615       Ni618   1.892       .  S
O616       Ni618   1.877       .  S
C619        C898   1.498   1_455  S
C620        C914   1.505       .  S
C621        C997   1.477       .  S
C622        C933   1.489       .  S
O623       Ni631   1.947       .  S
O623        C633   1.289       .  A
O624       Ni631   1.948       .  S
O624        C634   1.290       .  A
O625       Ni631   1.883       .  S
O625        C635   1.271       .  A
O626       Ni631   1.884       .  S
O626        C636   1.273       .  A
O627       Ni632   1.958       .  S
O627        C636   1.291       .  A
O628       Ni632   1.953       .  S
O628        C635   1.291       .  A
O629       Ni632   1.899       .  S
O629        C634   1.275       .  A
O630       Ni632   1.881       .  S
O630        C633   1.272       .  A
Ni631      Ni632   2.381       .  S
C633        C866   1.484       .  S
C634        C882   1.502       .  S
C635        C853   1.482       .  S
C636        C930   1.496       .  S
O637       Ni645   1.960       .  S
O637        C647   1.293       .  A
O638       Ni645   1.962       .  S
O638        C648   1.293       .  A
O639       Ni645   1.874       .  S
O639        C649   1.270       .  A
O640       Ni645   1.874       .  S
O640        C650   1.269       .  A
O641       Ni646   1.958       .  S
O641        C650   1.291   1_545  A
O642       Ni646   1.955       .  S
O642        C649   1.292   1_545  A
O643       Ni646   1.886       .  S
O643        C648   1.272   1_545  A
O644       Ni646   1.875       .  S
O644        C647   1.271   1_545  A
Ni645      Ni646   2.382   1_565  S
C647        C901   1.494       .  S
C648        C917   1.501       .  S
C649        C946   1.485       .  S
C650        C837   1.477       .  S
O651       Ni659   1.954       .  S
O651        C661   1.292       .  A
O652       Ni659   1.952       .  S
O652        C662   1.290       .  A
O653       Ni659   1.875       .  S
O653        C663   1.270       .  A
O654       Ni659   1.881       .  S
O654        C664   1.272       .  A
O655       Ni660   1.958       .  S
O655        C664   1.292       .  A
O656       Ni660   1.952       .  S
O656        C663   1.291       .  A
O657       Ni660   1.896       .  S
O657        C662   1.275       .  A
O658       Ni660   1.879       .  S
O658        C661   1.271       .  A
Ni659      Ni660   2.383       .  S
C661        C869   1.486       .  S
C662        C885   1.492       .  S
C663        C818   1.478       .  S
C664        C834   1.501       .  S
O665       Ni673   1.960       .  S
O665        C675   1.293       .  A
O666       Ni673   1.965       .  S
O666        C676   1.293       .  A
O667       Ni673   1.873       .  S
O667        C677   1.269       .  A
O668       Ni673   1.881       .  S
O668        C678   1.271       .  A
O669       Ni674   1.962       .  S
O669        C678   1.292       .  A
O670       Ni674   1.959       .  S
O670        C677   1.292       .  A
O671       Ni674   1.879       .  S
O671        C676   1.271       .  A
O672       Ni674   1.876       .  S
O672        C675   1.271       .  A
Ni673      Ni674   2.380       .  S
C675        C786   1.498       .  S
C676        C770   1.503       .  S
C677        C821   1.480       .  S
C678        C802   1.486       .  S
O679       Ni687   1.948       .  S
O679        C689   1.290       .  A
O680       Ni687   1.949       .  S
O680        C690   1.290       .  A
O681       Ni687   1.880       .  S
O681        C691   1.271       .  A
O682       Ni687   1.890       .  S
O682        C692   1.274       .  A
O683       Ni688   1.958       .  S
O683        C692   1.292       .  A
O684       Ni688   1.951       .  S
O684        C691   1.291       .  A
O685       Ni688   1.892       .  S
O685        C690   1.274       .  A
O686       Ni688   1.876       .  S
O686        C689   1.271       .  A
Ni687      Ni688   2.381       .  S
C689        C757   1.483       .  S
C690        C738   1.496       .  S
C691       C1093   1.485       .  S
C692        C805   1.503       .  S
O693       Ni701   1.956       .  S
O693        C703   1.291       .  A
O694       Ni701   1.953       .  S
O694        C704   1.292       .  A
O695       Ni701   1.876       .  S
O695        C705   1.269       .  A
O696       Ni701   1.891       .  S
O696        C706   1.273       .  A
O697       Ni702   1.965       .  S
O697        C706   1.293       .  A
O698       Ni702   1.959       .  S
O698        C705   1.292       .  A
O699       Ni702   1.889       .  S
O699        C704   1.273       .  A
O700       Ni702   1.879       .  S
O700        C703   1.272       .  A
Ni701      Ni702   2.379       .  S
C703        C789   1.496       .  S
C704        C773   1.503       .  S
C705        C850   1.480       .  S
C706        C722   1.504       .  S
O707       Ni715   1.954       .  S
O707        C717   1.292       .  A
O708       Ni715   1.960       .  S
O708        C718   1.291       .  A
O709       Ni715   1.890       .  S
O709       C1823   1.273   1_455  A
O710       Ni715   1.901       .  S
O710        C720   1.275       .  A
O711       Ni716   1.955       .  S
O711       C1824   1.291       .  A
O712       Ni716   1.952       .  S
O712        C719   1.291       .  A
O713       Ni716   1.880       .  S
O713       C1822   1.272       .  A
O714       Ni716   1.866       .  S
O714       C1821   1.269       .  A
Ni715     Ni1820   2.382   1_455  S
Ni716     Ni1819   2.378       .  S
C717       O1818   1.272   1_455  A
C717       C1858   1.493       .  S
C718       O1817   1.273   1_455  A
C718       C1845   1.487       .  S
C719       O1813   1.271       .  A
C719        C978   1.485       .  S
C720       O1815   1.291   1_455  A
C720        C725   1.500       .  S
C721        C722   1.416       .  A
C721        C726   1.409   1_556  A
C721        H728   1.083       .  S
C722        C723   1.413   1_556  A
C723        C724   1.413       .  A
C723        C730   1.506       .  S
C724        C725   1.415       .  A
C724        H729   1.083       .  S
C725        C726   1.410       .  A
C726        C727   1.507   1_455  S
C727        H731   1.111   1_554  S
C727        H732   1.111   1_655  S
C727       H1837   1.110       .  S
C730        H734   1.110   1_554  S
C730        H735   1.110   1_554  S
C730        H736   1.111       .  S
H733       C1831   1.110       .  S
C737        C738   1.414       .  A
C737        C742   1.410       .  A
C737        H744   1.084       .  S
C738       C1843   1.409       .  A
C739       C1842   1.424   1_455  A
C739        C740   1.416       .  A
C739        C746   1.507       .  S
C740       C1845   1.402       .  A
C740        H745   1.084       .  S
C741       C1822   1.504       .  S
C741       C1844   1.418       .  A
C741        C742   1.414       .  A
C742        C743   1.506       .  S
C743        H747   1.111       .  S
C743        H748   1.110       .  S
C743        H749   1.110       .  S
C746        H750   1.109       .  S
C746        H751   1.110       .  S
C746        H752   1.111       .  S
C753        C754   1.417       .  A
C753        H760   1.083       .  S
C754       C1821   1.495       .  S
C754       C1859   1.412       .  A
C755       C1858   1.408       .  A
C755        C762   1.508       .  S
C756       C1861   1.412   1_455  A
C756        H761   1.082       .  S
C757       C1860   1.412       .  A
C757        C758   1.407       .  A
C758        C759   1.508       .  S
C759        H763   1.111       .  S
C759        H764   1.110       .  S
C759        H765   1.111       .  S
C762        H766   1.110       .  S
C762        H767   1.111       .  S
C762        H768   1.111       .  S
C769        C770   1.416       .  A
C769        C774   1.406       .  A
C769        H776   1.083       .  S
C770        C771   1.411       .  A
C771        C772   1.411       .  A
C771        C778   1.506       .  S
C772        C773   1.419       .  A
C772        H777   1.083       .  S
C773        C774   1.412       .  A
C774        C775   1.508       .  S
C775        H779   1.111       .  S
C775        H780   1.110       .  S
C775        H781   1.110       .  S
C778        H782   1.110       .  S
C778        H783   1.110       .  S
C778        H784   1.111       .  S
C785        C786   1.418       .  A
C785       C1342   1.404   1_565  A
C785       H1896   1.083       .  S
C786        C787   1.412       .  A
C787        C794   1.506       .  S
C788       C1893   1.411       .  A
C788        H793   1.084       .  S
C789       C1892   1.415       .  A
C789        C790   1.413   1_455  A
C790       C1337   1.408       .  A
C790        C791   1.506       .  S
C791        H796   1.110   1_655  S
C791        H797   1.110       .  S
H792       C1889   1.084       .  S
C794        H798   1.110       .  S
C794        H799   1.110       .  S
C794        H800   1.111       .  S
C801        C802   1.411       .  A
C801        C806   1.409   1_556  A
C801        H808   1.084       .  S
C802        C803   1.405   1_556  A
C803        C804   1.408       .  A
C803        C810   1.506   1_554  S
C804        C805   1.419       .  A
C804        H809   1.083       .  S
C805        C806   1.414       .  A
C806        C807   1.506       .  S
C807        H811   1.111   1_554  S
C807        H812   1.110       .  S
C807        H813   1.110       .  S
C810        H814   1.111       .  S
C810        H815   1.110       .  S
C810        H816   1.111   1_556  S
C817        C818   1.412       .  A
C817        C822   1.407       .  A
C817        H824   1.084       .  S
C818        C819   1.409       .  A
C819        C820   1.402       .  A
C819        C826   1.507       .  S
C820        C821   1.410       .  A
C820        H825   1.085       .  S
C821        C822   1.408       .  A
C822        C823   1.506       .  S
C823        H827   1.111       .  S
C823        H828   1.110       .  S
C823        H829   1.111       .  S
C826        H830   1.109       .  S
C826        H831   1.110       .  S
C826        H832   1.111       .  S
C833        C834   1.420       .  A
C833        C838   1.405       .  A
C833        H840   1.083       .  S
C834        C835   1.414       .  A
C835        C836   1.408       .  A
C835        C842   1.506       .  S
C836        C837   1.410       .  A
C836        H841   1.085       .  S
C837        C838   1.401       .  A
C838        C839   1.506       .  S
C839        H843   1.111       .  S
C839        H844   1.111       .  S
C839        H845   1.110   1_565  S
C842        H846   1.110       .  S
C842        H847   1.110       .  S
C842        H848   1.111       .  S
C849        C850   1.412       .  A
C849        C854   1.407       .  A
C849        H856   1.084       .  S
C850        C851   1.408       .  A
C851        C852   1.405       .  A
C851        C858   1.507       .  S
C852        C853   1.411       .  A
C852        H857   1.084       .  S
C853        C854   1.407       .  A
C854        C855   1.506       .  S
C855        H859   1.111       .  S
C855        H860   1.110       .  S
C855        H861   1.111       .  S
C858        H862   1.111       .  S
C858        H863   1.110       .  S
C858        H864   1.111       .  S
C865       C1970   1.417       .  A
C865        C870   1.399       .  A
C865       H1976   1.083       .  S
C866       C1969   1.411       .  A
C867       C1972   1.399   1_455  A
C867        C874   1.504       .  S
C868       C1971   1.407       .  A
C868        C869   1.413       .  A
C868        H873   1.083       .  S
C870        C871   1.509       .  S
C871        H875   1.111       .  S
C871        H876   1.110       .  S
C871        H877   1.111       .  S
H872       C1969   1.084       .  S
C874        H878   1.110       .  S
C874        H879   1.107   1_565  S
C874        H880   1.111       .  S
C881        C882   1.417       .  A
C881        C886   1.410       .  A
C881        H888   1.084       .  S
C882        C883   1.416       .  A
C883        C884   1.407       .  A
C883        C890   1.507       .  S
C884        C885   1.409       .  A
C884        H889   1.084       .  S
C885        C886   1.409       .  A
C886        C887   1.506       .  S
C887        H891   1.111       .  S
C887        H892   1.111       .  S
C887        H893   1.109       .  S
C890        H894   1.110       .  S
C890        H895   1.110       .  S
C890        H896   1.111       .  S
C897       C1450   1.412   1_565  A
C897        C902   1.408       .  A
C897       H2008   1.084       .  S
C898       C1449   1.417       .  A
C898        C899   1.412       .  A
C899       C2004   1.405       .  A
C899        C906   1.507   1_655  S
C900       C2003   1.400       .  A
C900        H905   1.083       .  S
C901        C902   1.411       .  A
C902        C903   1.506       .  S
C903        H907   1.111       .  S
C903        H908   1.110       .  S
C903        H909   1.110       .  S
H904       C2001   1.084       .  S
C906        H910   1.110       .  S
C906        H911   1.110       .  S
C906        H912   1.111       .  S
C913        C914   1.418       .  A
C913        C918   1.410       .  A
C913        H920   1.083       .  S
C915        C916   1.409       .  A
C915        C922   1.506       .  S
C916        C917   1.417   1_545  A
C916        H921   1.083       .  S
C918        C919   1.506       .  S
C919        H923   1.111       .  S
C919        H924   1.110       .  S
C919        H925   1.110       .  S
C922        H926   1.111       .  S
C922        H927   1.110       .  S
C922        H928   1.111       .  S
C929        C930   1.414       .  A
C929        C934   1.403       .  A
C929        H936   1.082       .  S
C930        C931   1.412       .  A
C931        C932   1.413       .  A
C931        C938   1.505       .  S
C932        C933   1.414       .  A
C932        H937   1.083       .  S
C933        C934   1.408       .  A
C934        C935   1.508       .  S
C935        H940   1.111       .  S
C938        H942   1.110       .  S
C938        H943   1.110       .  S
C938        H944   1.111       .  S
C945        C946   1.413       .  A
C945        C950   1.403       .  A
C945        H952   1.085       .  S
C946        C947   1.409   1_565  A
C947        C948   1.405       .  A
C947        C954   1.506       .  S
C948        C949   1.412   1_545  A
C948        H953   1.085       .  S
C949        C950   1.408       .  A
C950        C951   1.507       .  S
C951        H955   1.111       .  S
C951        H956   1.111       .  S
C954        H958   1.110       .  S
C954        H960   1.111       .  S
C961        C962   1.415       .  A
C961        C966   1.412       .  A
C962        C963   1.410       .  A
C963        C964   1.411       .  A
C963        C970   1.506       .  S
C964        C965   1.416       .  A
C964        H969   1.084       .  S
C965        C966   1.411       .  A
C966        C967   1.505       .  S
C967        H972   1.110       .  S
C967        H973   1.110       .  S
C970        H974   1.110       .  S
C970        H975   1.110       .  S
C970        H976   1.111       .  S
C977       C2082   1.414   1_455  A
C977        C982   1.410       .  A
C977        H984   1.084       .  S
C978       C2081   1.413       .  A
C978        C979   1.409       .  A
C979        C980   1.403       .  A
C979        C986   1.508       .  S
C980        C981   1.412       .  A
C980        H985   1.084       .  S
C981       C2086   1.409       .  A
C982       C2085   1.410   1_455  A
C982        C983   1.506       .  S
C983        H987   1.111       .  S
C983        H988   1.109       .  S
C983        H989   1.111       .  S
C986        H990   1.111       .  S
C986        H991   1.110       .  S
C986        H992   1.111       .  S
C993        C998   1.402       .  A
C993       H1000   1.084       .  S
C994        C995   1.409   1_565  A
C995        C996   1.406       .  A
C995       C1002   1.507       .  S
C996       H1001   1.083       .  S
C997        C998   1.409       .  A
C998        C999   1.507       .  S
C999       H1003   1.111       .  S
C999       H1004   1.111       .  S
C999       H1005   1.110       .  S
C1002      H1006   1.110       .  S
C1002      H1007   1.110       .  S
C1002      H1008   1.111       .  S
C1009      C1010   1.413   1_545  A
C1009      C1014   1.411       .  A
C1009      H1016   1.084       .  S
C1011      C1012   1.411       .  A
C1011      C1018   1.507       .  S
C1012      C1013   1.417       .  A
C1012      H1017   1.083       .  S
C1014      C1015   1.507       .  S
C1015      H1019   1.111       .  S
C1015      H1020   1.110       .  S
C1015      H1021   1.110       .  S
C1018      H1022   1.110       .  S
C1018      H1023   1.110       .  S
C1018      H1024   1.111       .  S
C1025      C2130   1.411       .  A
C1025      C1030   1.411   1_565  A
C1025      H1032   1.084   1_565  S
C1026      C2129   1.418   1_565  A
C1027      C2132   1.405       .  A
C1027      C1034   1.507       .  S
C1028      C2131   1.409       .  A
C1028      C1029   1.413       .  A
C1028      H2137   1.084       .  S
C1030      C1031   1.505       .  S
C1031      H1035   1.111       .  S
C1031      H1036   1.111       .  S
C1031      H1037   1.109       .  S
H1033      C2132   1.083       .  S
C1034      H1038   1.110       .  S
C1034      H1039   1.110       .  S
C1034      H1040   1.111       .  S
C1041      C1042   1.419       .  A
C1041      C1046   1.412       .  A
C1041      H1048   1.084       .  S
C1042      C1668   1.505       .  S
C1042      C2147   1.414       .  A
C1043      C2146   1.415   1_455  A
C1043      C1044   1.407       .  A
C1043      C1050   1.507       .  S
C1044      C2149   1.411   1_455  A
C1044      H1049   1.084       .  S
C1045      C2148   1.413       .  A
C1045      C1046   1.407       .  A
C1046      C1047   1.505       .  S
C1047      H1051   1.111       .  S
C1047      H1052   1.110       .  S
C1047      H1053   1.110       .  S
C1050      H1054   1.110       .  S
C1050      H1055   1.110       .  S
C1050      H1056   1.111       .  S
C1057      C1062   1.411   1_545  A
C1057      H1064   1.085       .  S
C1058      C2163   1.408       .  A
C1059      C2162   1.409       .  A
C1059      C1060   1.404       .  A
C1059      C1066   1.508       .  S
C1060      C1613   1.417       .  A
C1060      H1065   1.083       .  S
C1061      C1667   1.490       .  S
C1061      C1612   1.412       .  A
C1061      C1062   1.411       .  A
C1062      C1063   1.505       .  S
C1063      H1067   1.111   1_565  S
C1063      H1068   1.111       .  S
C1063      H1069   1.110       .  S
C1066      H1070   1.110       .  S
C1066      H1071   1.111       .  S
C1066      H1072   1.111       .  S
C1073      C1074   1.411       .  A
C1073      C1078   1.414       .  A
C1073      H1080   1.085       .  S
C1074      C1075   1.400       .  A
C1075      C1076   1.401       .  A
C1075      C2186   1.508       .  S
C1076      C1077   1.421       .  A
C1076      H2185   1.083       .  S
C1077      C1078   1.415       .  A
C1078      C1079   1.505   1_455  S
C1079      H1083   1.111       .  S
C1079      H1084   1.110       .  S
C1079      H1085   1.110       .  S
H1081      C2180   1.084       .  S
C1082      C2179   1.506       .  S
C1082      H2190   1.110   1_565  S
C1082      H1087   1.110   1_565  S
C1082      H1088   1.111   1_565  S
H1086      C2186   1.110       .  S
C1089      C1090   1.412       .  A
C1089      C1094   1.404       .  A
C1089      H1096   1.084       .  S
C1090      C2195   1.407       .  A
C1091      C2194   1.407       .  A
C1091      C2196   1.408       .  A
C1091      C1098   1.505       .  S
C1092      C2195   1.406       .  A
C1092      C1093   1.413       .  A
C1092      H2201   1.084       .  S
C1093      C1094   1.410       .  A
C1094      C1095   1.508       .  S
C1095      H1099   1.111       .  S
C1095      H1100   1.111       .  S
C1095      H1101   1.110       .  S
H1097      C2196   1.085       .  S
C1098      H1102   1.110       .  S
C1098      H1103   1.111       .  S
C1098      H1104   1.111       .  S
O1105     Ni1113   1.960       .  S
O1105      C1115   1.293       .  A
O1106     Ni1113   1.959       .  S
O1106      C1116   1.292       .  A
O1107     Ni1113   1.871       .  S
O1108     Ni1113   1.886       .  S
O1108      C1118   1.273       .  A
O1109     Ni1114   1.958       .  S
O1110     Ni1114   1.954       .  S
O1110      C1117   1.291       .  A
O1111     Ni1114   1.887       .  S
O1112     Ni1114   1.876       .  S
C1117      C1642   1.481       .  S
C1118      C1629   1.501       .  S
O1119     Ni1127   1.957       .  S
O1119      C1129   1.292       .  A
O1120     Ni1127   1.960       .  S
O1120      C1130   1.292       .  A
O1121     Ni1127   1.880       .  S
O1121      C1131   1.271       .  A
O1122     Ni1127   1.880       .  S
O1122      C1132   1.271       .  A
O1123     Ni1128   1.959       .  S
O1123      C1132   1.291       .  A
O1124     Ni1128   1.954       .  S
O1124      C1131   1.291       .  A
O1125     Ni1128   1.893       .  S
O1125      C1130   1.273       .  A
O1126     Ni1128   1.878       .  S
O1126      C1129   1.272       .  A
Ni1127    Ni1128   2.382       .  S
C1129      C1578   1.499       .  S
C1130      C1562   1.498       .  S
C1131      C1546   1.485       .  S
C1132      C1626   1.483       .  S
O1133     Ni1141   1.962       .  S
O1133      C1143   1.293       .  A
O1134     Ni1141   1.965       .  S
O1134      C1144   1.294       .  A
O1135     Ni1141   1.867       .  S
O1135      C1145   1.268       .  A
O1136     Ni1141   1.882       .  S
O1136      C1146   1.272       .  A
O1137     Ni1142   1.961       .  S
O1137      C1146   1.293       .  A
O1138     Ni1142   1.958       .  S
O1138      C1145   1.292       .  A
O1139     Ni1142   1.876       .  S
O1139      C1144   1.271       .  A
O1140     Ni1142   1.867       .  S
O1140      C1143   1.268       .  A
Ni1141    Ni1142   2.382       .  S
C1143      C1610   1.476       .  S
C1144      C1597   1.505       .  S
C1145      C1533   1.476       .  S
C1146      C1517   1.495       .  S
O1147     Ni1155   1.957       .  S
O1147      C1157   1.292       .  A
O1148     Ni1155   1.957       .  S
O1148      C1158   1.292   1_545  A
O1149     Ni1155   1.880       .  S
O1149      C1159   1.270   1_545  A
O1150     Ni1155   1.885       .  S
O1150      C1160   1.272       .  A
O1151     Ni1708   1.958       .  S
O1151      C1160   1.292   1_565  A
O1152     Ni1156   1.952       .  S
O1152      C1711   1.291       .  A
O1153     Ni1156   1.891       .  S
O1153      C1710   1.274       .  A
O1154     Ni1156   1.883       .  S
O1154      C1709   1.272       .  A
Ni1155    Ni1708   2.381   1_545  S
Ni1156     O1703   1.958       .  S
Ni1156    Ni1707   2.380       .  S
C1157      O1706   1.271   1_545  A
C1157      C1581   1.491       .  S
C1158      O1705   1.274       .  A
C1158      C1565   1.504       .  S
C1159      O1704   1.292       .  A
C1159      C2053   1.488       .  S
C1160      C1514   1.492       .  S
O1161     Ni1169   1.954       .  S
O1161      C1171   1.291       .  A
O1162     Ni1169   1.951       .  S
O1162      C1172   1.290       .  A
O1163     Ni1169   1.869       .  S
O1163      C1173   1.270   1_545  A
O1164     Ni1169   1.877       .  S
O1164      C1174   1.271       .  A
O1165     Ni1722   1.961       .  S
O1165      C1174   1.293   1_565  A
O1166     Ni1170   1.963       .  S
O1166      C1725   1.293       .  A
O1167     Ni1170   1.891       .  S
O1167      C1724   1.273       .  A
O1168     Ni1170   1.879       .  S
O1168      C1723   1.271       .  A
Ni1169    Ni1722   2.381   1_545  S
Ni1170     O1717   1.971       .  S
Ni1170    Ni1721   2.381       .  S
C1171      O1720   1.270   1_545  A
C1171      C1450   1.481       .  S
C1172      O1719   1.274   1_545  A
C1172      C1466   1.497   1_545  S
C1173      O1718   1.291       .  A
C1173      C1549   1.490       .  S
C1174      C1485   1.496       .  S
O1175     Ni1183   1.957       .  S
O1175      C1185   1.292       .  A
O1176     Ni1183   1.957       .  S
O1176      C1186   1.292       .  A
O1177     Ni1183   1.870       .  S
O1177      C1187   1.269       .  A
O1178     Ni1183   1.876       .  S
O1178      C1188   1.270       .  A
O1179     Ni1184   1.958       .  S
O1179      C1188   1.291       .  A
O1180     Ni1184   1.952       .  S
O1180      C1187   1.290       .  A
O1181     Ni1184   1.886       .  S
O1181      C1186   1.273       .  A
O1182     Ni1184   1.876       .  S
O1182      C1185   1.271       .  A
Ni1183    Ni1184   2.382       .  S
C1185      C1418   1.498       .  S
C1186      C1434   1.494       .  S
C1187      C1405   1.478       .  S
C1188      C1482   1.482       .  S
O1189     Ni1197   1.959       .  S
O1189      C1199   1.293       .  A
O1190     Ni1197   1.958       .  S
O1190      C1200   1.291       .  A
O1191     Ni1197   1.875       .  S
O1191      C1201   1.270       .  A
O1192     Ni1197   1.880       .  S
O1192      C1202   1.272       .  A
O1193     Ni1198   1.959       .  S
O1193      C1202   1.292       .  A
O1194     Ni1198   1.954       .  S
O1194      C1201   1.291       .  A
O1195     Ni1198   1.883       .  S
O1195      C1200   1.272       .  A
O1196     Ni1198   1.871       .  S
O1196      C1199   1.270       .  A
Ni1197    Ni1198   2.382       .  S
C1199      C1453   1.494       .  S
C1200      C1469   1.487       .  S
C1201      C1498   1.479       .  S
C1202      C1389   1.494       .  S
O1203     Ni1211   1.951       .  S
O1203      C1213   1.290       .  A
O1204     Ni1211   1.954       .  S
O1204      C1214   1.291       .  A
O1205     Ni1211   1.871       .  S
O1205      C1215   1.270       .  A
O1206     Ni1211   1.889       .  S
O1206      C1216   1.273       .  A
O1207     Ni1212   1.954       .  S
O1207      C1216   1.291       .  A
O1208     Ni1212   1.951       .  S
O1208      C1215   1.290       .  A
O1209     Ni1212   1.885       .  S
O1209      C1214   1.273       .  A
O1210     Ni1212   1.880       .  S
O1210      C1213   1.272       .  A
Ni1211    Ni1212   2.380       .  S
C1213      C1421   1.496       .  S
C1214      C1437   1.503       .  S
C1215      C1370   1.478       .  S
C1216      C1386   1.492       .  S
O1217     Ni1225   1.959       .  S
O1217      C1227   1.293       .  A
O1218     Ni1225   1.959       .  S
O1218      C1228   1.292       .  A
O1219     Ni1225   1.876       .  S
O1219      C1229   1.270       .  A
O1220     Ni1225   1.873       .  S
O1220      C1230   1.270       .  A
O1221     Ni1226   1.959       .  S
O1221      C1230   1.292       .  A
O1222     Ni1226   1.951       .  S
O1222      C1229   1.291       .  A
O1223     Ni1226   1.885       .  S
O1223      C1228   1.272       .  A
O1224     Ni1226   1.873       .  S
O1224      C1227   1.269       .  A
Ni1225    Ni1226   2.384       .  S
C1227      C1338   1.483       .  S
C1228      C1322   1.489       .  S
C1229      C1373   1.480       .  S
C1230      C1354   1.490       .  S
O1231     Ni1239   1.964       .  S
O1231      C1241   1.293       .  A
O1232     Ni1239   1.965       .  S
O1232      C1242   1.294       .  A
O1233     Ni1239   1.868       .  S
O1233      C1243   1.269       .  A
O1234     Ni1239   1.882       .  S
O1234      C1244   1.271       .  A
O1235     Ni1240   1.951   1_655  S
O1235      C1244   1.290       .  A
O1236     Ni1240   1.949       .  S
O1236      C1243   1.290   1_455  A
O1237     Ni1240   1.885   1_655  S
O1237      C1242   1.272       .  A
O1238     Ni1240   1.874       .  S
O1238      C1241   1.271   1_455  A
Ni1239    Ni1240   2.380   1_655  S
C1241      C1309   1.502       .  S
C1242      C1290   1.509       .  S
C1243      C1645   1.478       .  S
C1244      C1357   1.483       .  S
O1245     Ni1253   1.954       .  S
O1245      C1255   1.291       .  A
O1246     Ni1253   1.949       .  S
O1246      C1256   1.290       .  A
O1247     Ni1253   1.874       .  S
O1247      C1257   1.270       .  A
O1248     Ni1253   1.882       .  S
O1248      C1258   1.273       .  A
O1249     Ni1254   1.952       .  S
O1249      C1258   1.290       .  A
O1250     Ni1254   1.946       .  S
O1250      C1257   1.290       .  A
O1251     Ni1254   1.893       .  S
O1251      C1256   1.274       .  A
O1252     Ni1254   1.880       .  S
O1252      C1255   1.271       .  A
Ni1253    Ni1254   2.382       .  S
C1255      C1341   1.486       .  S
C1256      C1325   1.500       .  S
C1257      C1402   1.476       .  S
C1258      C1274   1.495       .  S
O1259     Ni1267   1.949       .  S
O1259      C1269   1.290       .  A
O1260     Ni1267   1.947       .  S
O1260      C1270   1.290       .  A
O1261     Ni1267   1.875       .  S
O1262     Ni1267   1.885       .  S
O1262      C1272   1.272       .  A
O1263     Ni1268   1.958       .  S
O1264     Ni1268   1.951       .  S
O1264      C1271   1.291       .  A
O1265     Ni1268   1.888       .  S
O1266     Ni1268   1.872       .  S
C1271      C1530   1.474       .  S
C1272      C1277   1.482       .  S
C1273      C1274   1.416       .  A
C1273      C1278   1.403   1_556  A
C1273      H1280   1.083       .  S
C1274      C1275   1.412   1_556  A
C1275      C1276   1.408       .  A
C1275      C1282   1.506       .  S
C1276      C1277   1.411       .  A
C1276      H1281   1.084       .  S
C1277      C1278   1.405       .  A
C1278      C1279   1.507       .  S
C1279      H1283   1.111   1_554  S
C1279      H1284   1.111       .  S
C1282      H1286   1.110   1_554  S
C1282      H1287   1.110   1_554  S
C1282      H1288   1.111       .  S
C1289      C1290   1.420   1_455  A
C1289      C1294   1.410       .  A
C1289      H1296   1.083       .  S
C1291      C1292   1.406       .  A
C1291      C1298   1.507       .  S
C1292      H1297   1.083       .  S
C1293      C1294   1.407   1_655  A
C1294      C1295   1.506       .  S
C1295      H1299   1.111       .  S
C1295      H1300   1.110       .  S
C1295      H1301   1.110       .  S
C1298      H1302   1.110       .  S
C1298      H1303   1.110       .  S
C1298      H1304   1.111       .  S
C1305      C1306   1.418   1_565  A
C1305      C1862   1.402       .  A
C1305      H1312   1.083   1_565  S
C1307      C1860   1.404   1_545  A
C1307      C1314   1.507       .  S
C1308      C1859   1.407       .  A
C1308      H1313   1.084       .  S
C1309      C1310   1.413       .  A
C1310      C1857   1.410       .  A
C1310      C1311   1.506       .  S
C1311      H1315   1.111       .  S
C1311      H1316   1.110       .  S
C1311      H1317   1.110       .  S
C1314      H1318   1.110       .  S
C1314      H1319   1.110       .  S
C1314      H1320   1.111       .  S
C1321      C1322   1.409       .  A
C1321      C1326   1.406       .  A
C1321      H1328   1.084       .  S
C1322      C1323   1.408       .  A
C1323      C1324   1.410       .  A
C1323      C1330   1.506       .  S
C1324      C1325   1.417       .  A
C1324      H1329   1.083       .  S
C1325      C1326   1.416       .  A
C1326      C1327   1.508       .  S
C1327      H1331   1.111       .  S
C1327      H1332   1.110       .  S
C1327      H1333   1.110       .  S
C1330      H1334   1.111       .  S
C1330      H1335   1.110       .  S
C1330      H1336   1.111       .  S
C1337      C1338   1.412       .  A
C1338      C1339   1.406   1_655  A
C1339      C1892   1.403       .  A
C1339      C1346   1.506       .  S
C1340      C1891   1.405   1_455  A
C1340      H1345   1.083   1_565  S
C1341      C1342   1.407       .  A
C1342      C1343   1.508       .  S
C1343      H1899   1.111       .  S
C1343      H1348   1.110       .  S
C1343      H1349   1.111       .  S
C1346      H1350   1.110       .  S
C1346      H1351   1.108   1_455  S
C1346      H1352   1.111       .  S
H1347      C1895   1.111       .  S
C1353      C1354   1.415       .  A
C1353      C1358   1.402       .  A
C1353      H1360   1.083       .  S
C1354      C1355   1.408       .  A
C1355      C1356   1.408   1_556  A
C1355      C1362   1.505       .  S
C1356      C1357   1.414       .  A
C1356      H1361   1.084       .  S
C1357      C1358   1.404   1_554  A
C1358      C1359   1.507       .  S
C1359      H1363   1.111       .  S
C1359      H1364   1.111   1_556  S
C1359      H1365   1.110   1_656  S
C1362      H1366   1.110       .  S
C1362      H1367   1.110       .  S
C1362      H1368   1.111   1_556  S
C1369      C1370   1.412       .  A
C1369      C1374   1.403       .  A
C1369      H1376   1.085       .  S
C1370      C1371   1.407       .  A
C1371      C1372   1.403       .  A
C1371      C1378   1.507       .  S
C1372      C1373   1.412       .  A
C1372      H1377   1.084       .  S
C1373      C1374   1.406       .  A
C1374      C1375   1.506       .  S
C1375      H1379   1.111       .  S
C1375      H1380   1.109       .  S
C1375      H1381   1.111       .  S
C1378      H1382   1.111       .  S
C1378      H1383   1.110       .  S
C1378      H1384   1.111       .  S
C1385      C1386   1.415       .  A
C1385      C1390   1.411       .  A
C1385      H1392   1.084       .  S
C1386      C1387   1.409       .  A
C1387      C1388   1.405       .  A
C1387      C1394   1.507       .  S
C1388      C1389   1.414       .  A
C1388      H1393   1.084       .  S
C1389      C1390   1.409       .  A
C1390      C1391   1.505       .  S
C1391      H1395   1.111       .  S
C1391      H1396   1.110       .  S
C1391      H1397   1.110       .  S
C1394      H1398   1.111       .  S
C1394      H1399   1.110       .  S
C1394      H1400   1.111       .  S
C1401      C1402   1.413       .  A
C1401      C1406   1.406       .  A
C1401      H1408   1.084       .  S
C1402      C1403   1.408       .  A
C1403      C1404   1.399       .  A
C1403      C1410   1.508       .  S
C1404      C1405   1.410       .  A
C1404      H1409   1.084       .  S
C1405      C1406   1.407       .  A
C1406      C1407   1.506       .  S
C1407      H1411   1.111       .  S
C1407      H1412   1.110       .  S
C1407      H1413   1.111       .  S
C1410      H1414   1.110       .  S
C1410      H1415   1.110       .  S
C1410      H1416   1.111       .  S
C1417      C1422   1.412   1_545  A
C1418      C1971   1.413   1_545  A
C1419      C1970   1.413       .  A
C1419      C1426   1.505       .  S
C1420      C1421   1.416       .  A
C1420      H1425   1.083       .  S
C1421      C1974   1.414       .  A
C1422      C1973   1.412       .  A
C1422      C1423   1.505       .  S
C1423      H1427   1.111   1_565  S
C1423      H1428   1.111       .  S
C1423      H1429   1.110       .  S
C1426      H1430   1.111       .  S
C1426      H1431   1.110       .  S
C1426      H1432   1.111       .  S
C1433      C1434   1.413       .  A
C1433      C1438   1.408       .  A
C1433      H1440   1.084       .  S
C1434      C1435   1.408       .  A
C1435      C1436   1.408       .  A
C1435      C1442   1.507       .  S
C1436      C1437   1.419       .  A
C1436      H1441   1.083       .  S
C1437      C1438   1.415       .  A
C1438      C1439   1.507       .  S
C1439      H1443   1.111       .  S
C1439      H1444   1.110       .  S
C1439      H1445   1.110       .  S
C1442      H1446   1.110       .  S
C1442      H1447   1.110       .  S
C1442      H1448   1.111       .  S
C1449      C1454   1.405       .  A
C1450      C1451   1.405       .  A
C1451      C1458   1.508       .  S
C1452      C2005   1.418   1_545  A
C1452      H1457   1.083       .  S
C1453      C2004   1.416       .  A
C1453      C1454   1.409       .  A
C1454      C1455   1.507       .  S
C1455      H1459   1.111       .  S
C1455      H1460   1.110       .  S
C1455      H1461   1.110       .  S
C1458      H1462   1.110       .  S
C1458      H1463   1.111       .  S
C1458      H1464   1.111       .  S
C1465      C1466   1.415       .  A
C1465      C1470   1.410       .  A
C1465      H1472   1.083       .  S
C1466      C2019   1.409   1_565  A
C1467      C2018   1.415       .  A
C1467      C1468   1.404       .  A
C1467      C1474   1.508       .  S
C1468      C1469   1.409       .  A
C1468      H1473   1.085       .  S
C1469      C2022   1.407       .  A
C1470      C2021   1.413       .  A
C1470      C1471   1.506       .  S
C1471      H1475   1.111       .  S
C1471      H1476   1.110       .  S
C1471      H1477   1.110       .  S
C1474      H1478   1.110       .  S
C1474      H1479   1.110       .  S
C1474      H1480   1.111       .  S
C1481      C1482   1.412       .  A
C1481      C1486   1.407       .  A
C1481      H1488   1.084       .  S
C1482      C1483   1.403       .  A
C1483      C1484   1.406       .  A
C1483      C1490   1.506       .  S
C1484      C1485   1.419       .  A
C1484      H1489   1.083       .  S
C1485      C1486   1.410       .  A
C1486      C1487   1.506   1_545  S
C1487      H2043   1.111       .  S
C1487      H1492   1.110       .  S
C1487      H2045   1.110       .  S
C1490      H1494   1.111       .  S
C1490      H1495   1.110       .  S
C1490      H1496   1.111       .  S
H1491      C2039   1.111       .  S
H1493      C2039   1.110       .  S
C1497      C1498   1.410       .  A
C1497      C1502   1.400       .  A
C1497      H1504   1.084       .  S
C1498      C1499   1.408       .  A
C1499      C1500   1.406       .  A
C1499      C1506   1.506       .  S
C1500      C1501   1.412       .  A
C1500      H1505   1.085       .  S
C1501      C1711   1.473       .  S
C1501      C1502   1.406       .  A
C1502      C1503   1.508       .  S
C1503      H1507   1.111       .  S
C1503      H1508   1.111       .  S
C1503      H2061   1.110       .  S
C1506      H1510   1.110       .  S
C1506      H2063   1.111       .  S
C1506      H1512   1.111       .  S
H1509      C2055   1.110       .  S
H1511      C2058   1.111       .  S
C1513      C1514   1.415       .  A
C1513      C1518   1.408       .  A
C1513      H2072   1.084       .  S
C1514      C1515   1.408       .  A
C1515      C1516   1.408       .  A
C1515      C1522   1.506   1_545  S
C1516      C1517   1.416       .  A
C1516      H1521   1.084       .  S
C1517      C1518   1.409       .  A
C1518      C1519   1.506       .  S
C1519      H2075   1.111       .  S
C1519      H1524   1.110       .  S
C1519      H1525   1.110       .  S
H1520      C2065   1.084       .  S
C1522      H1526   1.111       .  S
C1522      H1527   1.110       .  S
C1522      H1528   1.111       .  S
H1523      C2071   1.111       .  S
C1529      C1534   1.406       .  A
C1529      H1536   1.084       .  S
C1530      C1531   1.408       .  A
C1531      C1532   1.401       .  A
C1531      C1538   1.508       .  S
C1532      C1533   1.410       .  A
C1532      H1537   1.084       .  S
C1534      C1535   1.506       .  S
C1535      H1539   1.111       .  S
C1535      H1540   1.110       .  S
C1535      H1541   1.111       .  S
C1538      H1542   1.111       .  S
C1538      H1543   1.110       .  S
C1538      H1544   1.111       .  S
C1545      C2098   1.417       .  A
C1545      C1550   1.408       .  A
C1545      H1552   1.083       .  S
C1546      C2097   1.413       .  A
C1546      C1547   1.407       .  A
C1547      C1548   1.405       .  A
C1547      C1554   1.507       .  S
C1548      C2101   1.414       .  A
C1548      H1553   1.084       .  S
C1549      C2100   1.414   1_565  A
C1549      C1550   1.409       .  A
C1550      C1551   1.506       .  S
C1551      H1555   1.111       .  S
C1551      H1556   1.110       .  S
C1551      H1557   1.111       .  S
C1554      H1558   1.110       .  S
C1554      H1559   1.111       .  S
C1554      H1560   1.111       .  S
C1561      C1562   1.412       .  A
C1561      C1566   1.410       .  A
C1561      H1568   1.084       .  S
C1562      C2115   1.410       .  A
C1563      C2114   1.407       .  A
C1563      C1564   1.411       .  A
C1563      C1570   1.505       .  S
C1564      C1565   1.418       .  A
C1564      H1569   1.083       .  S
C1565      C2118   1.415   1_565  A
C1566      C2117   1.416       .  A
C1566      C1567   1.507       .  S
C1567      H1571   1.111       .  S
C1567      H1572   1.110       .  S
C1567      H1573   1.110       .  S
C1570      H1574   1.111       .  S
C1570      H1575   1.110       .  S
C1570      H1576   1.111       .  S
C1577      C1582   1.408       .  A
C1577      H1584   1.084   1_655  S
C1578      C2131   1.413       .  A
C1579      C2130   1.406       .  A
C1579      C1586   1.508       .  S
C1580      C1581   1.414   1_565  A
C1581      C2134   1.408       .  A
C1582      C2133   1.414       .  A
C1582      C1583   1.506       .  S
C1583      H1587   1.111       .  S
C1583      H1588   1.111       .  S
C1583      H1589   1.109       .  S
C1586      H1590   1.110       .  S
C1586      H1591   1.109       .  S
C1586      H1592   1.111       .  S
C1593      C1594   1.416       .  A
C1593      C1598   1.410       .  A
C1593      H1600   1.083       .  S
C1595      C1596   1.410       .  A
C1595      C1602   1.507       .  S
C1596      H1601   1.084       .  S
C1597      C1598   1.412       .  A
C1598      C1599   1.506       .  S
C1599      H1603   1.111       .  S
C1599      H1604   1.110       .  S
C1599      H1605   1.110       .  S
C1602      H1606   1.110       .  S
C1602      H1607   1.110       .  S
C1602      H1608   1.111       .  S
C1609      C2162   1.416   1_455  A
C1609      C1614   1.404       .  A
C1609      H1616   1.083       .  S
C1610      C2161   1.406       .  A
C1611      C1612   1.401       .  A
C1611      C1618   1.506       .  S
C1612      H1617   1.084       .  S
C1613      C1614   1.411   1_655  A
C1614      C1615   1.508       .  S
C1615      H1619   1.111       .  S
C1615      H1620   1.110       .  S
C1615      H1621   1.110       .  S
C1618      H1622   1.110       .  S
C1618      H1623   1.108   1_565  S
C1618      H1624   1.111       .  S
C1625      C1626   1.410       .  A
C1625      C1630   1.408       .  A
C1625      H1632   1.085       .  S
C1626      C1627   1.403       .  A
C1627      C1628   1.407       .  A
C1628      C1629   1.419       .  A
C1629      C1630   1.414       .  A
C1630      C1631   1.506       .  S
C1631      H1635   1.111       .  S
C1631      H1636   1.110       .  S
C1631      H1637   1.110       .  S
C1634      H1639   1.110       .  S
C1634      H1640   1.111       .  S
C1641      C1642   1.413   1_455  A
C1641      C1646   1.400       .  A
C1641      H1648   1.084       .  S
C1643      C1650   1.508       .  S
C1644      C1645   1.414       .  A
C1645      C1646   1.407   1_655  A
C1646      C1647   1.508       .  S
C1647      H1651   1.111       .  S
C1647      H1652   1.111       .  S
C1647      H1653   1.110       .  S
C1650      H1654   1.111       .  S
C1650      H1655   1.110       .  S
C1650      H1656   1.111       .  S
O1657     Ni1665   1.964       .  S
O1657      C1667   1.293       .  A
O1658     Ni1665   1.970       .  S
O1658      C1668   1.295       .  A
O1659     Ni1665   1.875       .  S
O1660     Ni1665   1.886       .  S
O1660      C1670   1.271       .  A
O1661     Ni1666   1.973       .  S
O1662     Ni1666   1.963       .  S
O1662      C1669   1.293       .  A
O1663     Ni1666   1.890       .  S
O1664     Ni1666   1.874       .  S
C1669      C2194   1.473       .  S
C1670      C2181   1.486       .  S
O1671     Ni1679   1.953       .  S
O1671      C1681   1.291       .  A
O1672     Ni1679   1.957       .  S
O1672      C1682   1.291       .  A
O1673     Ni1679   1.889       .  S
O1673      C1683   1.273       .  A
O1674     Ni1679   1.896       .  S
O1674      C1684   1.276       .  A
O1675     Ni1680   1.955       .  S
O1675      C1684   1.291       .  A
O1676     Ni1680   1.941   1_545  S
O1676      C1683   1.289   1_545  A
O1677     Ni1680   1.892       .  S
O1677      C1682   1.273       .  A
O1678     Ni1680   1.881       .  S
O1678      C1681   1.270       .  A
Ni1679    Ni1680   2.381       .  S
C1681      C2130   1.478       .  S
C1682      C2114   1.491       .  S
C1683      C2098   1.492       .  S
C1684      C2178   1.507       .  S
O1685     Ni1693   1.955       .  S
O1685      C1695   1.292       .  A
O1686     Ni1693   1.956       .  S
O1686      C1696   1.291       .  A
O1687     Ni1693   1.877       .  S
O1687      C1697   1.271       .  A
O1688     Ni1693   1.885       .  S
O1688      C1698   1.273       .  A
O1689     Ni1694   1.962       .  S
O1689      C1698   1.292       .  A
O1690     Ni1694   1.959   1_455  S
O1690      C1697   1.292   1_455  A
O1691     Ni1694   1.889       .  S
O1691      C1696   1.273       .  A
O1692     Ni1694   1.872       .  S
O1692      C1695   1.270       .  A
Ni1693    Ni1694   2.380       .  S
C1695      C2162   1.493       .  S
C1696      C2149   1.493       .  S
C1697      C2085   1.492       .  S
C1698      C2069   1.498       .  S
O1699     Ni1707   1.958       .  S
O1699      C1709   1.292       .  A
O1700     Ni1707   1.957       .  S
O1700      C1710   1.292       .  A
O1701     Ni1707   1.871       .  S
O1701      C1711   1.269       .  A
O1702     Ni1707   1.887       .  S
O1702      C1712   1.272       .  A
O1703      C1712   1.292       .  A
O1704     Ni1708   1.953       .  S
O1705     Ni1708   1.895       .  S
O1706     Ni1708   1.881       .  S
C1709      C2133   1.500       .  S
C1710      C2117   1.507       .  S
C1712      C2066   1.494       .  S
O1713     Ni1721   1.948       .  S
O1713      C1723   1.290       .  A
O1714     Ni1721   1.948       .  S
O1714      C1724   1.290       .  A
O1715     Ni1721   1.870       .  S
O1715      C1725   1.269       .  A
O1716     Ni1721   1.881       .  S
O1716      C1726   1.272       .  A
O1717      C1726   1.294       .  A
O1718     Ni1722   1.956       .  S
O1719     Ni1722   1.895       .  S
O1720     Ni1722   1.877       .  S
C1723      C2002   1.483       .  S
C1724      C2018   1.498       .  S
C1725      C2101   1.486       .  S
C1726      C2037   1.504       .  S
O1727     Ni1735   1.964       .  S
O1727      C1737   1.293       .  A
O1728     Ni1735   1.969       .  S
O1728      C1738   1.295       .  A
O1729     Ni1735   1.882       .  S
O1729      C1739   1.271       .  A
O1730     Ni1735   1.889       .  S
O1730      C1740   1.271       .  A
O1731     Ni1736   1.960       .  S
O1731      C1740   1.291       .  A
O1732     Ni1736   1.954       .  S
O1732      C1739   1.291       .  A
O1733     Ni1736   1.884       .  S
O1733      C1738   1.272       .  A
O1734     Ni1736   1.869       .  S
O1734      C1737   1.270       .  A
Ni1735    Ni1736   2.380       .  S
C1737      C1970   1.499       .  S
C1738      C1986   1.503       .  S
C1739      C1957   1.488       .  S
C1740      C2034   1.482       .  S
O1741     Ni1749   1.964       .  S
O1741      C1751   1.293       .  A
O1742     Ni1749   1.965       .  S
O1742      C1752   1.294       .  A
O1743     Ni1749   1.870       .  S
O1743      C1753   1.269       .  A
O1744     Ni1749   1.876       .  S
O1744      C1754   1.270       .  A
O1745     Ni1750   1.966   1_565  S
O1745      C1754   1.293       .  A
O1746     Ni1750   1.963       .  S
O1746      C1753   1.293   1_545  A
O1747     Ni1750   1.880       .  S
O1747      C1752   1.271   1_545  A
O1748     Ni1750   1.865       .  S
O1748      C1751   1.269   1_545  A
Ni1749    Ni1750   2.378   1_565  S
C1751      C2005   1.496       .  S
C1752      C2021   1.506       .  S
C1753      C2050   1.489       .  S
C1754      C1941   1.491       .  S
O1755     Ni1763   1.965       .  S
O1755      C1765   1.293       .  A
O1756     Ni1763   1.964       .  S
O1756      C1766   1.294       .  A
O1757     Ni1763   1.871       .  S
O1757      C1767   1.269       .  A
O1758     Ni1763   1.880       .  S
O1758      C1768   1.271       .  A
O1759     Ni1764   1.963       .  S
O1759      C1768   1.293       .  A
O1760     Ni1764   1.957       .  S
O1760      C1767   1.292       .  A
O1761     Ni1764   1.889       .  S
O1761      C1766   1.273       .  A
O1762     Ni1764   1.872       .  S
O1762      C1765   1.270       .  A
Ni1763    Ni1764   2.379       .  S
C1765      C1973   1.493       .  S
C1766      C1989   1.510       .  S
C1767      C1922   1.486       .  S
C1768      C1938   1.497       .  S
O1769     Ni1777   1.956       .  S
O1769      C1779   1.292       .  A
O1770     Ni1777   1.958       .  S
O1770      C1780   1.292       .  A
O1771     Ni1777   1.875       .  S
O1771      C1781   1.270       .  A
O1772     Ni1777   1.878       .  S
O1772      C1782   1.270       .  A
O1773     Ni1778   1.963       .  S
O1773      C1782   1.292       .  A
O1774     Ni1778   1.957       .  S
O1774      C1781   1.292       .  A
O1775     Ni1778   1.892       .  S
O1775      C1780   1.273       .  A
O1776     Ni1778   1.878       .  S
O1776      C1779   1.272       .  A
Ni1777    Ni1778   2.383       .  S
C1779      C1890   1.495       .  S
C1780      C1874   1.490       .  S
C1781      C1925   1.487       .  S
C1782      C1906   1.484       .  S
O1783     Ni1791   1.955       .  S
O1783      C1793   1.292       .  A
O1784     Ni1791   1.951       .  S
O1784      C1794   1.291       .  A
O1785     Ni1791   1.872       .  S
O1785      C1795   1.268       .  A
O1786     Ni1791   1.883       .  S
O1786      C1796   1.272       .  A
O1787     Ni1792   1.961   1_655  S
O1787      C1796   1.293       .  A
O1788     Ni1792   1.954       .  S
O1788      C1795   1.292   1_455  A
O1789     Ni1792   1.904       .  S
O1789      C1794   1.274   1_455  A
O1790     Ni1792   1.884       .  S
O1790      C1793   1.271   1_455  A
Ni1791    Ni1792   2.384   1_655  S
C1793      C1861   1.485       .  S
C1794      C1842   1.495       .  S
C1795      C2197   1.475       .  S
C1796      C1909   1.499       .  S
O1797     Ni1805   1.961       .  S
O1797      C1807   1.292       .  A
O1798     Ni1805   1.959       .  S
O1798      C1808   1.292       .  A
O1799     Ni1805   1.874       .  S
O1799      C1809   1.270       .  A
O1800     Ni1805   1.884       .  S
O1800      C1810   1.272       .  A
O1801     Ni1806   1.961       .  S
O1801      C1810   1.292       .  A
O1802     Ni1806   1.957       .  S
O1802      C1809   1.292       .  A
O1803     Ni1806   1.890       .  S
O1803      C1808   1.273       .  A
O1804     Ni1806   1.876       .  S
O1804      C1807   1.271       .  A
Ni1805    Ni1806   2.381       .  S
C1807      C1893   1.492       .  S
C1808      C1877   1.500       .  S
C1809      C1954   1.484       .  S
C1810      C1826   1.496       .  S
O1811     Ni1819   1.960       .  S
O1811      C1821   1.292       .  A
O1812     Ni1819   1.960       .  S
O1812      C1822   1.292       .  A
O1813     Ni1819   1.881       .  S
O1814     Ni1819   1.892       .  S
O1814      C1824   1.274       .  A
O1815     Ni1820   1.954       .  S
O1816     Ni1820   1.948       .  S
O1816      C1823   1.290       .  A
O1817     Ni1820   1.894       .  S
O1818     Ni1820   1.884       .  S
C1823      C2082   1.491       .  S
C1824      C1829   1.497       .  S
C1825      C1826   1.415       .  A
C1825      C1830   1.408   1_556  A
C1825      H1832   1.083       .  S
C1826      C1827   1.409   1_556  A
C1827      C1828   1.410       .  A
C1827      C1834   1.506       .  S
C1828      C1829   1.416       .  A
C1828      H1833   1.083       .  S
C1829      C1830   1.410       .  A
C1830      C1831   1.506       .  S
C1831      H1835   1.111   1_554  S
C1831      H1836   1.110       .  S
C1834      H1838   1.110   1_554  S
C1834      H1839   1.110   1_554  S
C1834      H1840   1.111       .  S
C1841      C1842   1.401       .  A
C1841      C1846   1.405       .  A
C1841      H1848   1.084       .  S
C1843      C1844   1.405       .  A
C1843      C1850   1.508       .  S
C1844      H1849   1.083       .  S
C1845      C1846   1.417   1_455  A
C1846      C1847   1.508       .  S
C1847      H1851   1.111       .  S
C1847      H1852   1.110       .  S
C1847      H1853   1.109       .  S
C1850      H1854   1.110       .  S
C1850      H1855   1.110       .  S
C1850      H1856   1.111       .  S
C1857      C1858   1.415   1_655  A
C1857      H1864   1.084       .  S
C1859      C1866   1.506       .  S
C1860      H1865   1.084       .  S
C1861      C1862   1.406       .  A
C1862      C1863   1.508       .  S
C1863      H1867   1.111       .  S
C1863      H1868   1.110       .  S
C1863      H1869   1.110       .  S
C1866      H1870   1.110       .  S
C1866      H1871   1.110       .  S
C1866      H1872   1.111       .  S
C1873      C1874   1.410       .  A
C1873      C1878   1.409       .  A
C1873      H1880   1.084       .  S
C1874      C1875   1.407       .  A
C1875      C1876   1.410       .  A
C1875      C1882   1.506       .  S
C1876      C1877   1.416       .  A
C1876      H1881   1.084       .  S
C1877      C1878   1.415       .  A
C1878      C1879   1.507       .  S
C1879      H1883   1.111       .  S
C1879      H1884   1.110       .  S
C1879      H1885   1.111       .  S
C1882      H1886   1.111       .  S
C1882      H1887   1.110       .  S
C1882      H1888   1.111       .  S
C1889      C1890   1.415       .  A
C1890      C1891   1.410       .  A
C1891      C1898   1.507   1_655  S
C1892      H1897   1.084       .  S
C1893      C1894   1.413       .  A
C1894      C1895   1.505       .  S
C1895      H1900   1.111       .  S
C1895      H1901   1.110       .  S
C1898      H1902   1.110   1_455  S
C1898      H1903   1.109   1_455  S
C1898      H1904   1.111       .  S
C1905      C1906   1.411       .  A
C1905      C1910   1.408   1_556  A
C1905      H1912   1.085       .  S
C1906      C1907   1.403   1_556  A
C1907      C1908   1.408       .  A
C1907      C1914   1.505       .  S
C1908      C1909   1.419       .  A
C1908      H1913   1.085       .  S
C1909      C1910   1.411       .  A
C1910      C1911   1.506   1_655  S
C1911      H1915   1.111   1_554  S
C1911      H1916   1.110       .  S
C1911      H1917   1.110       .  S
C1914      H1918   1.110   1_554  S
C1914      H1919   1.110       .  S
C1914      H1920   1.111       .  S
C1921      C1922   1.414       .  A
C1921      C1926   1.406       .  A
C1921      H1928   1.084       .  S
C1922      C1923   1.408       .  A
C1923      C1924   1.404       .  A
C1923      C1930   1.507       .  S
C1924      C1925   1.414       .  A
C1924      H1929   1.084       .  S
C1925      C1926   1.408       .  A
C1926      C1927   1.506       .  S
C1927      H1931   1.111       .  S
C1927      H1932   1.110       .  S
C1927      H1933   1.110       .  S
C1930      H1934   1.110       .  S
C1930      H1935   1.110       .  S
C1930      H1936   1.111       .  S
C1937      C1938   1.418       .  A
C1937      C1942   1.408       .  A
C1937      H1944   1.084       .  S
C1938      C1939   1.409       .  A
C1939      C1940   1.408       .  A
C1939      C1946   1.506       .  S
C1940      C1941   1.415       .  A
C1940      H1945   1.084       .  S
C1941      C1942   1.406       .  A
C1942      C1943   1.505       .  S
C1943      H1947   1.111   1_565  S
C1943      H1948   1.110       .  S
C1943      H1949   1.110   1_565  S
C1946      H1950   1.110       .  S
C1946      H1951   1.110       .  S
C1946      H1952   1.111       .  S
C1953      C1954   1.412       .  A
C1953      C1958   1.406       .  A
C1953      H1960   1.084       .  S
C1954      C1955   1.409       .  A
C1955      C1956   1.405       .  A
C1955      C1962   1.507       .  S
C1956      C1957   1.413       .  A
C1956      H1961   1.084       .  S
C1957      C1958   1.410       .  A
C1958      C1959   1.507       .  S
C1959      H1963   1.111       .  S
C1959      H1964   1.110       .  S
C1959      H1965   1.111       .  S
C1962      H1966   1.111       .  S
C1962      H1967   1.110       .  S
C1962      H1968   1.111       .  S
C1969      C1974   1.406   1_455  A
C1971      C1978   1.507       .  S
C1972      C1973   1.413       .  A
C1972      H1977   1.084       .  S
C1974      C1975   1.507       .  S
C1975      H1979   1.111       .  S
C1975      H1980   1.110       .  S
C1975      H1981   1.110       .  S
C1978      H1982   1.110   1_565  S
C1978      H1983   1.110       .  S
C1978      H1984   1.111       .  S
C1985      C1986   1.416       .  A
C1985      C1990   1.409       .  A
C1985      H1992   1.084       .  S
C1986      C1987   1.409       .  A
C1987      C1988   1.412       .  A
C1987      C1994   1.506       .  S
C1988      C1989   1.420       .  A
C1988      H1993   1.083       .  S
C1989      C1990   1.414       .  A
C1990      C1991   1.507       .  S
C1991      H1995   1.111       .  S
C1991      H1996   1.110       .  S
C1991      H1997   1.110       .  S
C1994      H1998   1.110       .  S
C1994      H1999   1.110       .  S
C1994      H2000   1.111       .  S
C2001      C2006   1.409       .  A
C2002      C2003   1.406       .  A
C2003      C2010   1.508       .  S
C2004      H2009   1.084       .  S
C2005      C2006   1.411       .  A
C2006      C2007   1.506       .  S
C2007      H2011   1.111       .  S
C2007      H2012   1.110       .  S
C2007      H2013   1.110       .  S
C2010      H2014   1.110       .  S
C2010      H2015   1.111       .  S
C2010      H2016   1.111       .  S
C2017      C2018   1.417       .  A
C2017      C2022   1.411       .  A
C2017      H2024   1.084       .  S
C2019      C2020   1.407       .  A
C2019      C2026   1.508       .  S
C2020      C2021   1.419   1_545  A
C2020      H2025   1.083       .  S
C2022      C2023   1.505       .  S
C2023      H2027   1.111       .  S
C2023      H2028   1.110       .  S
C2023      H2029   1.110       .  S
C2026      H2030   1.111       .  S
C2026      H2031   1.109       .  S
C2026      H2032   1.111       .  S
C2033      C2034   1.410       .  A
C2033      C2038   1.417       .  A
C2033      H2040   1.084       .  S
C2034      C2035   1.405       .  A
C2035      C2036   1.403       .  A
C2035      C2042   1.508       .  S
C2036      C2037   1.415       .  A
C2036      H2041   1.084       .  S
C2037      C2038   1.417       .  A
C2038      C2039   1.505       .  S
C2039      H2044   1.110       .  S
C2042      H2046   1.110       .  S
C2042      H2047   1.110       .  S
C2042      H2048   1.111       .  S
C2049      C2050   1.413       .  A
C2049      C2054   1.402       .  A
C2049      H2056   1.084       .  S
C2050      C2051   1.408   1_565  A
C2051      C2052   1.409       .  A
C2051      C2058   1.505       .  S
C2052      C2053   1.415   1_545  A
C2052      H2057   1.084       .  S
C2053      C2054   1.409       .  A
C2054      C2055   1.508       .  S
C2055      H2059   1.111       .  S
C2055      H2060   1.111       .  S
C2058      H2062   1.110       .  S
C2058      H2064   1.111       .  S
C2065      C2066   1.415       .  A
C2065      C2070   1.411       .  A
C2066      C2067   1.408       .  A
C2067      C2068   1.407       .  A
C2067      C2074   1.506       .  S
C2068      C2069   1.416       .  A
C2068      H2073   1.084       .  S
C2069      C2070   1.410       .  A
C2070      C2071   1.505       .  S
C2071      H2076   1.110       .  S
C2071      H2077   1.110   1_655  S
C2074      H2078   1.110       .  S
C2074      H2079   1.110       .  S
C2074      H2080   1.111       .  S
C2081      C2086   1.408       .  A
C2081      H2088   1.084       .  S
C2082      C2083   1.410       .  A
C2083      C2084   1.403       .  A
C2083      C2090   1.508       .  S
C2084      C2085   1.413       .  A
C2084      H2089   1.084       .  S
C2086      C2087   1.506       .  S
C2087      H2091   1.111       .  S
C2087      H2092   1.110       .  S
C2087      H2093   1.110       .  S
C2090      H2094   1.111       .  S
C2090      H2095   1.110       .  S
C2090      H2096   1.111       .  S
C2097      C2102   1.406       .  A
C2097      H2104   1.084       .  S
C2098      C2099   1.411   1_565  A
C2099      C2100   1.399       .  A
C2099      C2106   1.509       .  S
C2100      H2105   1.083       .  S
C2101      C2102   1.408       .  A
C2102      C2103   1.506       .  S
C2103      H2107   1.111       .  S
C2103      H2108   1.111       .  S
C2103      H2109   1.110       .  S
C2106      H2110   1.110       .  S
C2106      H2111   1.110       .  S
C2106      H2112   1.111       .  S
C2113      C2114   1.410   1_545  A
C2113      C2118   1.408       .  A
C2113      H2120   1.084       .  S
C2115      C2116   1.410       .  A
C2115      C2122   1.507       .  S
C2116      C2117   1.418       .  A
C2116      H2121   1.083       .  S
C2118      C2119   1.507       .  S
C2119      H2123   1.111       .  S
C2119      H2124   1.110       .  S
C2119      H2125   1.111       .  S
C2122      H2126   1.111       .  S
C2122      H2127   1.109       .  S
C2122      H2128   1.111       .  S
C2129      C2134   1.405   1_455  A
C2129      H2136   1.083       .  S
C2131      C2138   1.506       .  S
C2132      C2133   1.417       .  A
C2134      C2135   1.508       .  S
C2135      H2139   1.111   1_655  S
C2135      H2140   1.110       .  S
C2135      H2141   1.110       .  S
C2138      H2142   1.111       .  S
C2138      H2143   1.110       .  S
C2138      H2144   1.111       .  S
C2145      C2146   1.419       .  A
C2145      C2150   1.410       .  A
C2145      H2152   1.083       .  S
C2147      C2148   1.411       .  A
C2147      C2154   1.506       .  S
C2148      H2153   1.084       .  S
C2149      C2150   1.408       .  A
C2150      C2151   1.506       .  S
C2151      H2155   1.111       .  S
C2151      H2156   1.111       .  S
C2151      H2157   1.110       .  S
C2154      H2158   1.110       .  S
C2154      H2159   1.111       .  S
C2154      H2160   1.111       .  S
C2161      C2166   1.399   1_645  A
C2161      H2168   1.085       .  S
C2163      C2164   1.407       .  A
C2163      C2170   1.507       .  S
C2164      H2169   1.083       .  S
C2165      C2166   1.408   1_655  A
C2166      C2167   1.507       .  S
C2167      H2171   1.111   1_565  S
C2167      H2172   1.110       .  S
C2167      H2173   1.108       .  S
C2170      H2174   1.110       .  S
C2170      H2175   1.110       .  S
C2170      H2176   1.111       .  S
C2177      C2178   1.419       .  A
C2177      C2182   1.409       .  A
C2177      H2184   1.083       .  S
C2178      C2179   1.417       .  A
C2179      C2180   1.411       .  A
C2180      C2181   1.409       .  A
C2181      C2182   1.404       .  A
C2182      C2183   1.506       .  S
C2183      H2187   1.111       .  S
C2183      H2188   1.111       .  S
C2183      H2189   1.110       .  S
C2186      H2191   1.110   1_565  S
C2186      H2192   1.111       .  S
C2193      C2194   1.407   1_455  A
C2193      C2198   1.399       .  A
C2193      H2200   1.085       .  S
C2195      C2202   1.506       .  S
C2196      C2197   1.412       .  A
C2197      C2198   1.408   1_655  A
C2198      C2199   1.505       .  S
C2199      H2203   1.111       .  S
C2199      H2204   1.107       .  S
C2199      H2205   1.110       .  S
C2202      H2206   1.110       .  S
C2202      H2207   1.111       .  S
C2202      H2208   1.111       .  S
