geometry optimzed in LAMMPS
_audit_creation_date              2020-12-01 
_audit_creation_method            'lammps2cif' 
_symmetry_space_group_name_H-M    'P1' 
_symmetry_Int_Tables_number       1 
_symmetry_cell_setting            triclinic 
loop_ 
_symmetry_equiv_pos_as_xyz 
  x,y,z 
_cell_length_a                    33.5463745 
_cell_length_b                    33.721628748302564 
_cell_length_c                    33.25157907238384 
_cell_angle_alpha                 90.42506881065918 
_cell_angle_beta                  89.29277248155428 
_cell_angle_gamma                 89.02395280619712 
loop_ 
_atom_site_label 
_atom_site_type_symbol 
_atom_site_fract_x 
_atom_site_fract_y 
_atom_site_fract_z 
_atom_site_charge 
C1          C  0.33034436  0.24385762  0.52611336     0.04100
C2          C  0.35236158  0.20861134  0.52898987    -0.12100
C3          C  0.36265133  0.18704257  0.49434205     0.01600
C4          C  0.35480864  0.20298700  0.45657072    -0.10600
C5          C  0.33307429  0.23846730  0.45351356     0.04100
C6          C  0.32097631  0.25921491  0.48841908    -0.10000
H7          H  0.35746847  0.19588802  0.55839603     0.09700
H8          H  0.36206373  0.18596974  0.42957540     0.07200
H9          H  0.30214888  0.28555409  0.48642532     0.07100
C10         C  0.16568655  0.37317335  0.45112503     0.04100
C11         C  0.18436853  0.35868388  0.48629053    -0.12100
C12         C  0.17044378  0.37021093  0.52541079     0.01600
C13         C  0.13705578  0.39639877  0.52852315    -0.10600
C14         C  0.11715191  0.41005817  0.49389859     0.04100
C15         C  0.13194677  0.39822315  0.45569106    -0.10000
H16         H  0.20870258  0.33728710  0.48326642     0.09700
H17         H  0.12514829  0.40436812  0.55795941     0.07200
H18         H  0.11639439  0.40771523  0.42895854     0.07100
C19         C  0.10325842  0.51914450  0.27021076     0.04100
C20         C  0.11841451  0.55497031  0.25760322    -0.12100
C21         C  0.11152791  0.58864336  0.28091148     0.01600
C22         C  0.08690834  0.58730216  0.31497426    -0.10600
C23         C  0.07128945  0.55121404  0.32719403     0.04100
C24         C  0.07947568  0.51691732  0.30475397    -0.10000
H25         H  0.13876458  0.55580777  0.23199340     0.09700
H26         H  0.08094189  0.61401955  0.33250476     0.07200
H27         H  0.06922607  0.48835096  0.31502458     0.07100
C28         C  0.29152067  0.51452261  0.19285423     0.04100
C29         C  0.27661947  0.55193375  0.20703006    -0.12100
C30         C  0.29092802  0.58807361  0.19117359     0.01600
C31         C  0.31905292  0.58634882  0.15941896    -0.10600
C32         C  0.33348555  0.54983526  0.14362027     0.04100
C33         C  0.32030783  0.51416661  0.16133877    -0.10000
H34         H  0.25317235  0.55290668  0.22973012     0.09700
H35         H  0.32845475  0.61380513  0.14579039     0.07200
H36         H  0.33061640  0.48597649  0.14892312     0.07100
C37         C  0.49103356  0.22273005  0.31295079     0.04100
C38         C  0.49475050  0.18864053  0.33670856    -0.12100
C39         C  0.46124927  0.16975386  0.35206578     0.01600
C40         C  0.42319822  0.18545581  0.34371871    -0.10600
C41         C  0.41881744  0.21969298  0.32009507     0.04100
C42         C  0.45297724  0.23808119  0.30450188    -0.10000
H43         H  0.52390992  0.17547960  0.34173961     0.09700
H44         H  0.39689481  0.17070433  0.35494377     0.07200
H45         H  0.45004577  0.26326009  0.28463624     0.07100
C46         C  0.45196355  0.38096849  0.19094941     0.04100
C47         C  0.48682364  0.36082044  0.20321463    -0.12100
C48         C  0.52383544  0.37036473  0.18565930     0.01600
C49         C  0.52549378  0.39855619  0.15491861    -0.10600
C50         C  0.49071263  0.41818098  0.14267771     0.04100
C51         C  0.45458931  0.41070853  0.16235456    -0.10000
H52         H  0.48493955  0.33688727  0.22468320     0.09700
H53         H  0.55353032  0.40384232  0.13946106     0.07200
H54         H  0.42734683  0.42523696  0.15249885     0.07100
C55         C  0.16754832  0.35721675  0.95216942     0.04100
C56         C  0.18362149  0.34020211  0.98749906    -0.12100
C57         C  0.17078558  0.35342065  0.02632668     0.01600
C58         C  0.14225727  0.38465809  0.02924099    -0.10600
C59         C  0.12727165  0.40335572  0.99456219     0.04100
C60         C  0.13986730  0.38892417  0.95639146    -0.10000
H61         H  0.20713768  0.31788392  0.98481712     0.09700
H62         H  0.13369044  0.39607581  0.05870614     0.07200
H63         H  0.12923013  0.40345175  0.92951131     0.07100
C64         C  0.28650955  0.20886970  0.96049186     0.04100
C65         C  0.32212571  0.18628686  0.95932722    -0.12100
C66         C  0.33477281  0.16576849  0.99308105     0.01600
C67         C  0.31076549  0.16536180  0.02756536    -0.10600
C68         C  0.27717982  0.19009458  0.03017046     0.04100
C69         C  0.26407156  0.21076874  0.99613893    -0.10000
H70         H  0.34228340  0.18790103  0.93374204     0.09700
H71         H  0.32169035  0.15126327  0.05461596     0.07200
H72         H  0.23921212  0.23163457  0.99885560     0.07100
O73         O  0.10486848  0.34163387  0.75325903    -0.87200
C74         C  0.25097266  0.24874272  0.60452166     1.12800
O75         O  0.19308296  0.33256062  0.74094433    -1.35000
O76         O  0.16756422  0.20646189  0.66362581    -0.88700
O77         O  0.13758948  0.37569006  0.80015349    -0.89400
O78         O  0.18176895  0.28234629  0.82315833    -0.78200
O79         O  0.13481131  0.27966510  0.69908856    -1.00300
C80         C  0.24470480  0.19528521  0.77249520     1.22900
O81         O  0.26167398  0.29548195  0.76776495    -1.35200
Mn82       Mn  0.24977035  0.32384838  0.71032394     1.82100
O83         O  0.21335537  0.21435725  0.78162997    -0.77300
O84         O  0.22407035  0.17734828  0.68413650    -0.86700
C85         C  0.32749496  0.28139927  0.68709261     1.14000
C86         C  0.18761903  0.17633121  0.67472533     1.08700
O87         O  0.27542808  0.38033601  0.72305774    -0.78200
O88         O  0.22299667  0.26683175  0.70081769    -1.31900
O89         O  0.25375875  0.37899658  0.78296328    -0.97400
C90         C  0.28883694  0.25306808  0.85594608     1.07400
Mn91       Mn  0.26670718  0.22061716  0.69245936     1.48600
O92         O  0.27512283  0.28837342  0.85914491    -0.86600
Mn93       Mn  0.19629138  0.37773762  0.78655121     1.49600
O94         O  0.14917252  0.39773150  0.69742456    -0.90500
C95         C  0.12138118  0.25781910  0.72497851     1.20600
C96         C  0.16792838  0.42639680  0.71259299     1.12600
Mn97       Mn  0.20190617  0.27299585  0.76238539     1.81000
O98         O  0.31175808  0.25502983  0.70626106    -0.95600
Mn99       Mn  0.14261260  0.33709472  0.70275959     1.49300
C100        C  0.10815358  0.35648725  0.78830556     1.09200
Mn101      Mn  0.30753187  0.25079904  0.76424267     1.49900
C102        C  0.35529122  0.32360465  0.79029998     1.12100
O103        O  0.20965474  0.33816568  0.82821293    -1.01400
O104        O  0.27175664  0.23290243  0.63190973    -0.91100
C105        C  0.18912229  0.31278134  0.84394870     1.23400
O106        O  0.26894620  0.21085525  0.75020689    -1.01800
O107        O  0.21501037  0.26010054  0.60920397    -0.89200
O108        O  0.35253464  0.29021696  0.77342317    -0.88800
O109        O  0.18767450  0.42396985  0.74496690    -0.88900
Mn110      Mn  0.17565899  0.26718468  0.65773531     1.47900
O111        O  0.30690118  0.31258945  0.68160010    -0.77300
C112        C  0.27330614  0.39597345  0.75758555     1.16400
O113        O  0.14321353  0.25075593  0.75471672    -0.76100
O114        O  0.23369504  0.35040774  0.65436177    -0.75700
Mn115      Mn  0.26702820  0.33468789  0.81800047     1.51100
O116        O  0.30301469  0.23818076  0.82390166    -0.88000
O117        O  0.17534728  0.32563945  0.65349839    -0.95600
O118        O  0.32695963  0.34132084  0.80863327    -0.90600
C119        C  0.20052310  0.34637413  0.63713936     1.14200
C120        C  0.13893389  0.00966731  0.30615103     0.04100
C121        C  0.15402614  0.04512438  0.29156828    -0.12100
C122        C  0.15009882  0.07942484  0.31464475     0.01600
C123        C  0.12935152  0.07862103  0.35158643    -0.10600
C124        C  0.11245046  0.04362417  0.36508180     0.04100
C125        C  0.11653948  0.00918629  0.34178580    -0.10000
H126        H  0.17230936  0.04504487  0.26441607     0.09700
H127        H  0.12840641  0.10441421  0.37116665     0.07200
H128        H  0.10594369  0.98120041  0.35329265     0.07100
C129        C  0.27816248  0.01361083  0.17595957     0.04100
C130        C  0.31095942  0.01432281  0.14883763    -0.12100
C131        C  0.33021015  0.04982453  0.13907843     0.01600
C132        C  0.31503219  0.08588497  0.15519930    -0.10600
C133        C  0.28134807  0.08712797  0.18098169     0.04100
C134        C  0.26325811  0.05065454  0.19152492    -0.10000
H135        H  0.32216700  0.98709275  0.13524198     0.09700
H136        H  0.33013397  0.11326086  0.14849008     0.07200
H137        H  0.23866729  0.05097713  0.21295840     0.07100
O138        O  0.28188854  0.79285002  0.12386439    -0.87200
C139        C  0.16290905  0.68557580  0.28484327     1.12800
O140        O  0.27174252  0.79761015  0.21612813    -1.35000
O141        O  0.13659165  0.74297170  0.19884178    -0.88700
O142        O  0.32166861  0.83786470  0.15126466    -0.89400
O143        O  0.23254092  0.88622962  0.20018357    -0.78200
O144        O  0.21254611  0.76142602  0.16577455    -1.00300
C145        C  0.13715001  0.85385945  0.26703941     1.22900
O146        O  0.24127435  0.83637126  0.28305988    -1.35200
Mn147      Mn  0.26109373  0.77562769  0.27606328     1.82100
O148        O  0.15862259  0.85929155  0.23603465    -0.77300
O149        O  0.10973680  0.77040652  0.25435994    -0.86700
C150        C  0.21597333  0.76386632  0.35413712     1.14000
C151        C  0.10792735  0.75896010  0.21816763     1.08700
O152        O  0.32033616  0.78124093  0.30034833    -0.78200
O153        O  0.20146048  0.77307547  0.25154753    -1.31900
O154        O  0.32929580  0.83598254  0.27155571    -0.97400
C155        C  0.21507116  0.93032231  0.30041609     1.07400
Mn156      Mn  0.15440769  0.77597029  0.29617456     1.48600
O157        O  0.25082202  0.92540066  0.28877058    -0.86600
Mn158      Mn  0.32371923  0.83272203  0.21321049     1.49600
O159        O  0.32678743  0.73590133  0.17607852    -0.90500
C160        C  0.19423681  0.78729773  0.14829316     1.20600
C161        C  0.35615618  0.74715203  0.19609508     1.12600
Mn162      Mn  0.21534210  0.82995358  0.22455462     1.81000
O163        O  0.19237401  0.78712353  0.33880700    -0.95600
Mn164      Mn  0.26897948  0.75299915  0.17003866     1.49300
C165        C  0.30417112  0.82277587  0.12146844     1.09200
Mn166      Mn  0.19715012  0.84447332  0.32943436     1.49900
C167        C  0.27632114  0.86188339  0.37460881     1.12100
O168        O  0.29109669  0.88130212  0.22405415    -1.01400
O169        O  0.15528318  0.71575087  0.30646311    -0.91100
C170        C  0.26712080  0.90010986  0.20382777     1.23400
O171        O  0.15170980  0.83353308  0.29373821    -1.01800
O172        O  0.17863578  0.68638679  0.25009485    -0.89200
O173        O  0.24022309  0.85129676  0.37339255    -0.88800
O174        O  0.36013724  0.78199002  0.21018736    -0.88900
Mn175      Mn  0.19467478  0.72723673  0.20819963     1.47900
O176        O  0.24764355  0.75532580  0.33499906    -0.77300
C177        C  0.34254678  0.81049302  0.29382234     1.16400
O178        O  0.19109693  0.82054138  0.16570635    -0.76100
O179        O  0.27909222  0.71552895  0.26563146    -0.75700
Mn180      Mn  0.28949127  0.87751931  0.28305332     1.51100
O181        O  0.19424496  0.90409164  0.31740370    -0.88000
O182        O  0.25136714  0.71190124  0.20840591    -0.95600
O183        O  0.29635654  0.87274530  0.34429718    -0.90600
C184        C  0.27071841  0.69541322  0.23479499     1.14200
C185        C  0.96384707  0.24176869  0.32652926     0.04100
C186        C  0.96079456  0.21593198  0.35971151    -0.12100
C187        C  0.99480579  0.19757430  0.37612742     0.01600
C188        C  0.03235210  0.20569649  0.35883983    -0.10600
C189        C  0.03582625  0.23105145  0.32543319     0.04100
C190        C  0.00143601  0.24900707  0.30961317    -0.10000
H191        H  0.93204097  0.21120450  0.37384309     0.09700
H192        H  0.05906150  0.19264211  0.37156686     0.07200
H193        H  0.00401708  0.26981751  0.28505796     0.07100
C194        C  0.92264485  0.36268748  0.17121954     0.00300
C195        C  0.92596304  0.39488483  0.14498529    -0.12100
C196        C  0.96335389  0.40991578  0.13522516     0.01600
C197        C  0.99726306  0.39264110  0.15154620    -0.10600
C198        C  0.99498784  0.36050522  0.17783322     0.04100
C199        C  0.95727021  0.34549608  0.18797906    -0.10000
H200        H  0.89926761  0.40909106  0.13341740     0.09700
H201        H  0.02563208  0.40642261  0.14581660     0.07200
H202        H  0.95473869  0.32216796  0.21006174     0.07100
O203        O  0.82422872  0.25184060  0.32080096    -0.87200
C204        C  0.60064408  0.23975274  0.29031817     1.12800
O205        O  0.75997740  0.30169704  0.27930625    -1.35000
O206        O  0.68094104  0.17483452  0.26242150    -0.88700
O207        O  0.85249684  0.30285818  0.28940848    -0.89400
O208        O  0.80653686  0.28022683  0.19546424    -0.78200
O209        O  0.74930300  0.21804056  0.29379190    -1.00300
C210        C  0.70678661  0.25190627  0.14700882     1.22900
O211        O  0.72262605  0.32989404  0.21054198    -1.35200
Mn212      Mn  0.70023313  0.32567209  0.27137758     1.82100
O213        O  0.73844181  0.24657718  0.16588321    -0.77300
O214        O  0.65785684  0.19423241  0.20268881    -0.86700
C215        C  0.62089623  0.33624066  0.23390400     1.14000
C216        C  0.67001476  0.16733397  0.22692685     1.08700
O217        O  0.70984578  0.38456362  0.28920702    -0.78200
O218        O  0.69186626  0.26514993  0.25061114    -1.31900
O219        O  0.76658222  0.38464184  0.26024894    -0.97400
C220        C  0.74937138  0.34952823  0.11215142     1.07400
Mn221      Mn  0.64553409  0.25656168  0.20869317     1.48600
O222        O  0.77237993  0.36162346  0.13985169    -0.86600
Mn223      Mn  0.80561103  0.34430496  0.27733911     1.49600
O224        O  0.77401361  0.30730587  0.37083121    -0.90500
C225        C  0.76857070  0.20066450  0.26749397     1.20600
C226        C  0.78766893  0.34220611  0.37031521     1.12600
Mn227      Mn  0.74948612  0.27273238  0.22200378     1.81000
O228        O  0.63602707  0.31449860  0.20817877    -0.95600
Mn229      Mn  0.76413388  0.26250478  0.32844323     1.49300
C230        C  0.85430633  0.26900323  0.30636683     1.09200
Mn231      Mn  0.67598295  0.32979699  0.16781615     1.49900
C232        C  0.68581208  0.42133506  0.18461060     1.12100
O233        O  0.80877899  0.33827569  0.21883078    -1.01400
O234        O  0.60161672  0.24729059  0.25292909    -0.91100
C235        C  0.82524864  0.31166101  0.19991172     1.23400
O236        O  0.68011423  0.27161956  0.16309365    -1.01800
O237        O  0.63141316  0.23211750  0.31066436    -0.89200
O238        O  0.66527020  0.39102420  0.17589542    -0.88800
O239        O  0.79998099  0.35893100  0.33846181    -0.88900
Mn240      Mn  0.69156477  0.22391452  0.29833453     1.47900
O241        O  0.64182208  0.34652588  0.26294041    -0.77300
C242        C  0.74141577  0.40209034  0.28076421     1.16400
O243        O  0.77349690  0.21711617  0.23438192    -0.76100
O244        O  0.67922779  0.32128713  0.33141671    -0.75700
Mn245      Mn  0.76566685  0.37448848  0.20205927     1.51100
O246        O  0.71371463  0.33932341  0.11871290    -0.88000
O247        O  0.70697153  0.26512768  0.33544876    -0.95600
O248        O  0.72291272  0.41950449  0.19201053    -0.90600
C249        C  0.68643689  0.29084761  0.35138639     1.14200
C250        C  0.66614729  0.20624031  0.97736509     0.04100
C251        C  0.63516212  0.17945494  0.97875564    -0.12100
C252        C  0.61326573  0.17399136  0.01415761     0.01600
C253        C  0.62508128  0.19236591  0.04973661    -0.10600
C254        C  0.65805507  0.21728008  0.04968588     0.04100
C255        C  0.67835373  0.22494274  0.01321282    -0.10000
H256        H  0.62556258  0.16576446  0.95095474     0.09700
H257        H  0.60783769  0.18849706  0.07719172     0.07200
H258        H  0.70195137  0.24646612  0.01245103     0.07100
C259        C  0.81437279  0.36528790  0.01927783     0.04100
C260        C  0.80157143  0.34977333  0.98202253    -0.12100
C261        C  0.81145932  0.36934256  0.94580023     0.01600
C262        C  0.83287983  0.40493016  0.94776784    -0.10600
C263        C  0.84531409  0.42035046  0.98485456     0.04100
C264        C  0.83704764  0.39953782  0.01998419    -0.10000
H265        H  0.78303428  0.32379551  0.98138525     0.09700
H266        H  0.83903700  0.42108802  0.92038344     0.07200
H267        H  0.84630827  0.41136911  0.04875909     0.07100
C268        C  0.94036695  0.22697578  0.69092326     0.04100
C269        C  0.94184261  0.19795472  0.66011229    -0.12100
C270        C  0.97834321  0.18616460  0.64150461     0.01600
C271        C  0.01417344  0.20213730  0.65598911    -0.10600
C272        C  0.01406528  0.23106886  0.68683891     0.04100
C273        C  0.97675270  0.24411968  0.70327333    -0.10000
H274        H  0.91413965  0.18640290  0.64885947     0.09700
H275        H  0.04226186  0.19381837  0.64156483     0.07200
H276        H  0.97593496  0.26829099  0.72493452     0.07100
C277        C  0.00844814  0.35573175  0.83820486     0.04100
C278        C  0.01158589  0.39206031  0.85877179    -0.12100
C279        C  0.97814855  0.41043233  0.87609796     0.01600
C280        C  0.94114945  0.39220928  0.87353225    -0.10600
C281        C  0.93793071  0.35648452  0.85226447     0.04100
C282        C  0.97205448  0.33704887  0.83690077    -0.10000
H283        H  0.03910112  0.40834442  0.85784094     0.09700
H284        H  0.91442766  0.40766715  0.88427466     0.07200
H285        H  0.96949725  0.30982150  0.81961767     0.07100
O286        O  0.82985962  0.36135900  0.79483520    -0.87200
C287        C  0.61044831  0.33740332  0.81375521     1.12800
O288        O  0.76367130  0.32302294  0.74833580    -1.35000
O289        O  0.69140051  0.30412539  0.87870273    -0.88700
O290        O  0.85506002  0.32719684  0.74234828    -0.89400
O291        O  0.81082471  0.23824096  0.76262528    -0.78200
O292        O  0.75734508  0.33780710  0.83411530    -1.00300
C293        C  0.70952153  0.19094071  0.79982830     1.22900
O294        O  0.72604556  0.25647448  0.71948278    -1.35200
Mn295      Mn  0.70297521  0.31611295  0.72703699     1.82100
O296        O  0.74167658  0.20952714  0.80401361    -0.77300
O297        O  0.66104212  0.24920916  0.85751237    -0.86700
C298        C  0.62337409  0.27517502  0.71391168     1.14000
C299        C  0.67717474  0.27027550  0.88482914     1.08700
O300        O  0.71155770  0.33704287  0.66766836    -0.78200
O301        O  0.69716399  0.29465591  0.78740456    -1.31900
O302        O  0.76846579  0.30913503  0.66356197    -0.97400
C303        C  0.76021802  0.16590309  0.69577860     1.07400
Mn304      Mn  0.64931621  0.25393143  0.79497773     1.48600
O305        O  0.77434344  0.19366580  0.67550571    -0.86600
Mn306      Mn  0.80905051  0.32045866  0.70260534     1.49600
O307        O  0.77779803  0.41270278  0.74260029    -0.90500
C308        C  0.77722398  0.31201779  0.85054471     1.20600
C309        C  0.79157444  0.41044709  0.70695731     1.12600
Mn310      Mn  0.75425446  0.26586809  0.77668874     1.81000
O311        O  0.63803656  0.24990556  0.73609398    -0.95600
Mn312      Mn  0.76988832  0.37198928  0.78860477     1.49300
C313        C  0.85791347  0.34283593  0.77676910     1.09200
Mn314      Mn  0.68170248  0.21139779  0.72124156     1.49900
C315        C  0.68690213  0.23264655  0.62879006     1.12100
O316        O  0.81342558  0.26306994  0.70407859    -1.01400
O317        O  0.60837944  0.30115661  0.80303143    -0.91100
C318        C  0.82957341  0.24282865  0.72984804     1.23400
O319        O  0.68338215  0.20711808  0.78019352    -1.01800
O320        O  0.64113816  0.35364614  0.82680786    -0.89200
O321        O  0.67100323  0.21694440  0.65960600    -0.88800
O322        O  0.80561748  0.37929403  0.69107127    -0.88900
Mn323      Mn  0.69981859  0.34187419  0.83119983     1.47900
O324        O  0.64392051  0.30541617  0.70646066    -0.77300
C325        C  0.74355884  0.33091697  0.64853016     1.16400
O326        O  0.78063486  0.27871197  0.83321044    -0.76100
O327        O  0.68127920  0.37544508  0.73679132    -0.75700
Mn328      Mn  0.76701385  0.25247683  0.66969661     1.51100
O329        O  0.72617756  0.16682173  0.71322466    -0.88000
O330        O  0.71244452  0.38290786  0.79140762    -0.95600
O331        O  0.72164578  0.24679265  0.62825535    -0.90600
C332        C  0.69048190  0.39743071  0.76598772     1.14200
C333        C  0.16588066  0.72335834  0.98363304     0.04100
C334        C  0.17264012  0.74180695  0.02111461    -0.12100
C335        C  0.15806532  0.72493417  0.05705223     0.01600
C336        C  0.13648157  0.68926512  0.05482956    -0.10600
C337        C  0.12934368  0.67066920  0.01757303     0.04100
C338        C  0.14434985  0.68793351  0.98256365    -0.10000
H339        H  0.19077216  0.76805079  0.02237121     0.09700
H340        H  0.12591949  0.67561267  0.08226871     0.07200
H341        H  0.14079427  0.67230341  0.95435272     0.07100
C342        C  0.29571717  0.86556349  0.01510709     0.04100
C343        C  0.28094006  0.85355333  0.97776970    -0.12100
C344        C  0.29563116  0.87075650  0.94229240     0.01600
C345        C  0.32534130  0.89931213  0.94404667    -0.10600
C346        C  0.33909422  0.91245516  0.98112256     0.04100
C347        C  0.32247961  0.89718417  0.01641539    -0.10000
H348        H  0.26032050  0.82920883  0.97608593     0.09700
H349        H  0.33838045  0.91049248  0.91644700     0.07200
H350        H  0.33218461  0.90870818  0.04504074     0.07100
C351        C  0.16029824  0.99364627  0.68020203     0.04100
C352        C  0.17694554  0.02967802  0.69265782    -0.12100
C353        C  0.16452145  0.06543506  0.67501046     0.01600
C354        C  0.13592659  0.06429399  0.64473348    -0.10600
C355        C  0.11917391  0.02878632  0.63214308     0.04100
C356        C  0.13149271  0.99327181  0.64990232    -0.10000
H357        H  0.20065194  0.02962563  0.71452895     0.09700
H358        H  0.12838748  0.09102622  0.62863925     0.07200
H359        H  0.12004316  0.96531250  0.63915176     0.07100
C360        C  0.30125076  0.03236898  0.80750208     0.04100
C361        C  0.28585756  0.06979538  0.79693618    -0.12100
C362        C  0.30427016  0.10453383  0.81048773     0.01600
C363        C  0.33832833  0.10140125  0.83471719    -0.10600
C364        C  0.35397537  0.06407119  0.84548455     0.04100
C365        C  0.33536815  0.02996551  0.83157227    -0.10000
H366        H  0.26070925  0.07177922  0.77685594     0.09700
H367        H  0.35295426  0.12810839  0.84460927     0.07200
H368        H  0.34875010  0.00137148  0.83818953     0.07100
O369        O  0.35498173  0.84378235  0.75190705    -0.87200
C370        C  0.19224958  0.73373176  0.87101232     1.12800
O371        O  0.26297471  0.83019554  0.74882952    -1.35000
O372        O  0.28241102  0.69834755  0.81810194    -0.88700
O373        O  0.32635484  0.87160354  0.69839491    -0.89400
O374        O  0.28104079  0.78333224  0.66470006    -0.78200
O375        O  0.31428222  0.77448995  0.78982689    -1.00300
C376        C  0.21891595  0.69663695  0.69972251     1.22900
O377        O  0.19746891  0.79691306  0.71116305    -1.35200
Mn378      Mn  0.20325433  0.81993257  0.77181340     1.82100
O379        O  0.25045587  0.71527575  0.69552452    -0.77300
O380        O  0.23053195  0.66978725  0.78847489    -0.86700
C381        C  0.12808276  0.77754233  0.78298943     1.14000
C382        C  0.26512960  0.66828947  0.80388917     1.08700
O383        O  0.17828790  0.87738961  0.76433669    -0.78200
O384        O  0.22967320  0.76148772  0.77901035    -1.31900
O385        O  0.20789675  0.88156780  0.70855082    -0.97400
C386        C  0.17783454  0.76920666  0.61282847     1.07400
Mn387      Mn  0.18775063  0.71532369  0.77812275     1.48600
O388        O  0.18803126  0.80455464  0.61940149    -0.86600
Mn389      Mn  0.26551172  0.87714159  0.70757090     1.49600
O390        O  0.29903534  0.89221049  0.80501175    -0.90500
C391        C  0.33143091  0.75514566  0.76363627     1.20600
C392        C  0.28592705  0.92249719  0.78669236     1.12600
Mn393      Mn  0.25663043  0.77217005  0.72106910     1.81000
O394        O  0.14559554  0.75291914  0.76199955    -0.95600
Mn395      Mn  0.30774290  0.83204784  0.79298680     1.49300
C396        C  0.35673396  0.85913170  0.71696994     1.09200
Mn397      Mn  0.15376735  0.75325792  0.70343016     1.49900
C398        C  0.10405086  0.83070627  0.68373561     1.12100
O399        O  0.25280641  0.83996978  0.66477315    -1.01400
O400        O  0.17507742  0.72097664  0.83967410    -0.91100
C401        C  0.27402787  0.81538110  0.64768720     1.23400
O402        O  0.19221964  0.71215773  0.71950687    -1.01800
O403        O  0.22723847  0.74780619  0.87062628    -0.89200
O404        O  0.10664047  0.79430648  0.69351589    -0.88800
O405        O  0.27284054  0.92140355  0.75103159    -0.88900
Mn406      Mn  0.27109623  0.75847553  0.82634752     1.47900
O407        O  0.14555781  0.80867026  0.79205635    -0.77300
C408        C  0.18605676  0.89703879  0.73362678     1.16400
O409        O  0.31392979  0.74959122  0.73128743    -0.76100
O410        O  0.21004304  0.84085659  0.83095969    -0.75700
Mn411      Mn  0.19513655  0.84228563  0.66804419     1.51100
O412        O  0.16545734  0.74623257  0.64059076    -0.88000
O413        O  0.26817035  0.81573957  0.83296713    -0.95600
O414        O  0.13401457  0.85129798  0.67434314    -0.90600
C415        C  0.24180697  0.83525749  0.84946369     1.14200
C416        C  0.95798384  0.73682982  0.16087682     0.04100
C417        C  0.95672244  0.69862335  0.14414664    -0.12100
C418        C  0.99068790  0.68089256  0.12725920     0.01600
C419        C  0.02664866  0.70119179  0.12757919    -0.10600
C420        C  0.02806633  0.73891120  0.14544814     0.04100
C421        C  0.99317146  0.75760000  0.15989281    -0.10000
H422        H  0.92991917  0.68130331  0.14677937     0.09700
H423        H  0.05387448  0.68651707  0.11713554     0.07200
H424        H  0.99424969  0.78654653  0.17423283     0.07100
C425        C  0.94927987  0.86866609  0.29911143     0.04100
C426        C  0.98780913  0.85605721  0.28470411    -0.12100
C427        C  0.02362179  0.87169264  0.30090602     0.01600
C428        C  0.02000856  0.89856272  0.33360629    -0.10600
C429        C  0.98238482  0.90978127  0.35035277     0.04100
C430        C  0.94746851  0.89561204  0.33193785    -0.10000
H431        H  0.98995748  0.83295977  0.26193151     0.09700
H432        H  0.04692266  0.90865696  0.34786033     0.07200
H433        H  0.91860831  0.90331279  0.34505165     0.07100
C434        C  0.79701401  0.03517425  0.31443855     0.04100
C435        C  0.78433142  0.07282800  0.30205133    -0.12100
C436        C  0.79997465  0.10670217  0.32036986     0.01600
C437        C  0.82795300  0.10311864  0.35085466    -0.10600
C438        C  0.84063037  0.06571244  0.36339257     0.04100
C439        C  0.82535862  0.03198798  0.34505132    -0.10000
H440        H  0.76123290  0.07577390  0.27969556     0.09700
H441        H  0.83884383  0.12955047  0.36556691     0.07200
H442        H  0.83361321  0.00318904  0.35676827     0.07100
C443        C  0.65357133  0.99805749  0.17697364     0.04100
C444        C  0.67244766  0.03478684  0.18423772    -0.12100
C445        C  0.65617346  0.07041393  0.16827534     0.01600
C446        C  0.62188580  0.06893475  0.14520762    -0.10600
C447        C  0.60141013  0.03365959  0.13970575     0.04100
C448        C  0.61755845  0.99819312  0.15523402    -0.10000
H449        H  0.69856339  0.03581352  0.20301764     0.09700
H450        H  0.60966808  0.09642556  0.13342674     0.07200
H451        H  0.60171707  0.97074008  0.15114838     0.07100
O452        O  0.63425206  0.74907187  0.19082931    -0.87200
C453        C  0.85507948  0.74070928  0.20340779     1.12800
O454        O  0.69893797  0.80147737  0.22280717    -1.35000
O455        O  0.77812809  0.67650610  0.24688698    -0.88700
O456        O  0.60727055  0.80366110  0.21888258    -0.89400
O457        O  0.65632102  0.78958253  0.31095067    -0.78200
O458        O  0.70967459  0.71656062  0.21305230    -1.00300
C459        C  0.76345286  0.76119078  0.35563586     1.22900
O460        O  0.73850243  0.83502042  0.28614052    -1.35200
Mn461      Mn  0.75841193  0.82606663  0.22519543     1.82100
O462        O  0.72946558  0.75533466  0.34069217    -0.77300
O463        O  0.81023203  0.70409112  0.29829381    -0.86700
C464        C  0.84138097  0.84161284  0.25910691     1.14000
C465        C  0.79366911  0.67499105  0.28137054     1.08700
O466        O  0.74498457  0.88408420  0.20267823    -0.78200
O467        O  0.76894255  0.76743815  0.24959863    -1.31900
O468        O  0.68964029  0.88762620  0.23406765    -0.97400
C469        C  0.71636173  0.86596195  0.37999072     1.07400
Mn470      Mn  0.81937499  0.76379285  0.28781234     1.48600
O471        O  0.69167418  0.87539764  0.35321707    -0.86600
Mn472      Mn  0.65193719  0.84531035  0.22382527     1.49600
O473        O  0.67926603  0.79801725  0.13286297    -0.90500
C474        C  0.69149615  0.70019660  0.23995703     1.20600
C475        C  0.66754697  0.83371505  0.13211957     1.12600
Mn476      Mn  0.71268250  0.77691150  0.28169296     1.81000
O477        O  0.82809050  0.82102933  0.28605928    -0.95600
Mn478      Mn  0.69271673  0.75764098  0.17660530     1.49300
C479        C  0.60552041  0.76796349  0.20713829     1.09200
Mn480      Mn  0.78785645  0.83772738  0.32619008     1.49900
C481        C  0.77498341  0.92646934  0.30322166     1.12100
O482        O  0.64896748  0.84556574  0.28266466    -1.01400
O483        O  0.85837857  0.75353087  0.23922812    -0.91100
C484        C  0.63507241  0.82024901  0.30479748     1.23400
O485        O  0.78703542  0.78021656  0.33536416    -1.01800
O486        O  0.82405556  0.72608391  0.18928683    -0.89200
O487        O  0.79596402  0.89700267  0.31419135    -0.88800
O488        O  0.65590219  0.85353231  0.16263735    -0.88900
Mn489      Mn  0.76634534  0.72085565  0.20540093     1.47900
O490        O  0.81809578  0.84901333  0.23032385    -0.77300
C491        C  0.71315982  0.90308483  0.21089162     1.16400
O492        O  0.68865455  0.71841550  0.27328523    -0.76100
O493        O  0.77620240  0.81462099  0.16495019    -0.75700
Mn494      Mn  0.69434759  0.88149314  0.29204267     1.51100
O495        O  0.75098272  0.85163916  0.37383981    -0.88000
O496        O  0.74968185  0.75764426  0.16273057    -0.95600
O497        O  0.73786261  0.92510242  0.29604978    -0.90600
C498        C  0.76877214  0.78347897  0.14556915     1.14200
C499        C  0.66666076  0.90933967  0.05092596     0.04100
C500        C  0.68715177  0.89224781  0.01798831    -0.12100
C501        C  0.67020940  0.89347829  0.98010945     0.01600
C502        C  0.63399577  0.91426138  0.97485622    -0.10600
C503        C  0.61413708  0.93178887  0.00744022     0.04100
C504        C  0.63139149  0.93091862  0.04537072    -0.10000
H505        H  0.71314738  0.87340204  0.02289877     0.09700
H506        H  0.61843953  0.91270151  0.94658974     0.07200
H507        H  0.61477453  0.94209846  0.07139313     0.07100
C508        C  0.80176162  0.73842250  0.96878684     0.04100
C509        C  0.78771191  0.75256990  0.00681288    -0.12100
C510        C  0.80115224  0.73476902  0.04283118     0.01600
C511        C  0.82878836  0.70301743  0.04022552    -0.10600
C512        C  0.84316424  0.68848405  0.00294658     0.04100
C513        C  0.82966548  0.70664314  0.96746442    -0.10000
H514        H  0.76432888  0.77511102  0.00823446     0.09700
H515        H  0.83800159  0.68853466  0.06767562     0.07200
H516        H  0.83902776  0.69451867  0.93851548     0.07100
C517        C  0.80692544  0.06530903  0.68855637     0.04100
C518        C  0.80994417  0.02975431  0.70882676    -0.12100
C519        C  0.82996207  0.99745286  0.69060216     0.01600
C520        C  0.85169875  0.00250178  0.65497953    -0.10600
C521        C  0.85017725  0.03897228  0.63526095     0.04100
C522        C  0.82789351  0.07029351  0.65209865    -0.10000
H523        H  0.79240796  0.02566189  0.73608242     0.09700
H524        H  0.86606988  0.97702050  0.64052099     0.07200
H525        H  0.82434376  0.09748847  0.63522552     0.07100
C526        C  0.67074702  0.08202045  0.81768658     0.04100
C527        C  0.68499160  0.04486155  0.80216646    -0.12100
C528        C  0.66915956  0.00835258  0.81577077     0.01600
C529        C  0.63689081  0.00976607  0.84343709    -0.10600
C530        C  0.62033465  0.04625612  0.85752587     0.04100
C531        C  0.63841507  0.08199397  0.84536098    -0.10000
H532        H  0.70796396  0.04438541  0.77896984     0.09700
H533        H  0.62318479  0.98223819  0.85223960     0.07200
H534        H  0.62569807  0.11014668  0.85545362     0.07100
C535        C  0.99205434  0.85440048  0.67296615     0.04100
C536        C  0.99341863  0.87874854  0.63883158    -0.12100
C537        C  0.95898651  0.89613613  0.62296203     0.01600
C538        C  0.92197997  0.88847982  0.64162377    -0.10600
C539        C  0.91963073  0.86419240  0.67609159     0.04100
C540        C  0.95494475  0.84714804  0.69151589    -0.10000
H541        H  0.02147816  0.88286310  0.62314840     0.09700
H542        H  0.89489005  0.90088062  0.62905865     0.07200
H543        H  0.95342234  0.82711170  0.71679114     0.07100
C544        C  0.96468978  0.72515404  0.81613975     0.04100
C545        C  0.00134121  0.73885092  0.80188717    -0.12100
C546        C  0.03694012  0.72197301  0.81620208     0.01600
C547        C  0.03613590  0.69175402  0.84465947    -0.10600
C548        C  0.99979709  0.67819486  0.85914442     0.04100
C549        C  0.96436064  0.69481977  0.84480281    -0.10000
H550        H  0.00220236  0.76118237  0.77861763     0.09700
H551        H  0.06382068  0.67830010  0.85475356     0.07200
H552        H  0.93643643  0.68212901  0.85427773     0.07100
N553        N  0.95746358  0.96323968  0.44141838    -0.05200
N554        N  0.94561954  0.94652397  0.40739552    -0.57300
N555        N  0.98864793  0.95347150  0.53863111    -0.04800
N556        N  0.99841157  0.93163873  0.56993718    -0.59400
N557        N  0.94971340  0.95614861  0.53568873    -0.04400
N558        N  0.93211316  0.93638057  0.56507815    -0.57200
N559        N  0.99641208  0.96007306  0.44441748    -0.04100
N560        N  0.01182271  0.94145738  0.41243735    -0.59800
C561        C  0.97991833  0.93303804  0.38930813     0.97000
C562        C  0.96288813  0.92100782  0.58623471     0.96800
N563        N  0.05925777  0.05416335  0.55008269    -0.05300
N564        N  0.08007607  0.06489517  0.58133082    -0.57900
N565        N  0.06323146  0.02166261  0.45565687    -0.03500
N566        N  0.08057089  0.00892467  0.42216610    -0.59100
N567        N  0.06511090  0.06055550  0.45852825    -0.05400
N568        N  0.08400085  0.07499643  0.42708129    -0.58100
N569        N  0.05777361  0.01521782  0.54756568    -0.03100
N570        N  0.07798768  0.99874138  0.57724068    -0.59200
Mn571      Mn  0.02759419  0.98639269  0.49683599     1.18400
C572        C  0.09155610  0.03031416  0.59810289     0.99100
C573        C  0.09340061  0.04244724  0.40479126     0.99800
N574        N  0.89154689  0.02747986  0.53833045    -0.05400
N575        N  0.87538941  0.01141348  0.57044353    -0.61700
N576        N  0.89823460  0.07435456  0.45048980    -0.04200
N577        N  0.87950625  0.09197399  0.42073902    -0.62400
N578        N  0.89669555  0.03555069  0.44643510    -0.04900
N579        N  0.87688872  0.02598811  0.41399790    -0.62000
N580        N  0.89343024  0.06627341  0.54278311    -0.03800
N581        N  0.87819045  0.07726734  0.57799392    -0.62700
Mn582      Mn  0.92254609  0.99475570  0.48992673     1.10700
C583        C  0.86715124  0.04268564  0.59475605     1.00300
C584        C  0.86649958  0.06139300  0.39824789     1.00400
N585        N  0.00521630  0.13307759  0.46017934    -0.04900
N586        N  0.02214039  0.15418828  0.43140638    -0.60300
N587        N  0.96026191  0.12958153  0.55237951    -0.04200
N588        N  0.94599455  0.15026967  0.58356978    -0.57000
N589        N  0.99930969  0.12671755  0.55399803    -0.05500
N590        N  0.01242195  0.14553005  0.58624305    -0.59800
N591        N  0.96618679  0.13643569  0.45850447    -0.04500
N592        N  0.95575543  0.15993427  0.42853444    -0.57000
Mn593      Mn  0.03339273  0.09440298  0.50583158     1.20200
Mn594      Mn  0.92821615  0.10275574  0.50107557     1.10100
Cl595      Cl  0.97796821  0.04463235  0.49837466    -0.85000
C596        C  0.99097105  0.17095203  0.41178094     0.97300
C597        C  0.97884060  0.16003451  0.60472178     0.97100
N598        N  0.95572650  0.49875425  0.08088211    -0.05200
N599        N  0.93756403  0.46911374  0.09865370    -0.57300
N600        N  0.00373923  0.58456281  0.08798753    -0.04800
N601        N  0.01982880  0.61633511  0.10392009    -0.59400
N602        N  0.96471251  0.58904212  0.08617567    -0.04400
N603        N  0.95354623  0.62374215  0.10112478    -0.57200
N604        N  0.99470588  0.49394251  0.08230986    -0.04100
N605        N  0.00382469  0.46096202  0.10118164    -0.59800
C606        C  0.96797810  0.44578981  0.11108365     0.97000
C607        C  0.98815339  0.64029061  0.11207057     0.96800
N608        N  0.07625319  0.58472995  0.98869699    -0.05300
N609        N  0.09665850  0.61633290  0.97844439    -0.57900
N610        N  0.06772950  0.48924592  0.02066339    -0.03500
N611        N  0.08706504  0.45674432  0.03244277    -0.59100
N612        N  0.07006693  0.49247385  0.98135637    -0.05400
N613        N  0.09068409  0.46226219  0.96559052    -0.58100
N614        N  0.07429939  0.58179038  0.02805634    -0.03100
N615        N  0.09314118  0.61148641  0.04538683    -0.59200
Mn616      Mn  0.03607344  0.53675763  0.05621882     1.18400
C617        C  0.10720777  0.63280114  0.01406182     0.99100
C618        C  0.10117800  0.43993541  0.99763521     0.99800
N619        N  0.90051921  0.60034570  0.01938207    -0.05400
N620        N  0.87971595  0.63084691  0.03425098    -0.61700
N621        N  0.89626985  0.51070517  0.97373525    -0.04200
N622        N  0.87863779  0.48027306  0.95660964    -0.62400
N623        N  0.89412512  0.50828493  0.01304857    -0.04900
N624        N  0.87505921  0.47604751  0.02362601    -0.62000
N625        N  0.90277585  0.60251909  0.98002061    -0.03800
N626        N  0.88350262  0.63453329  0.96720935    -0.62700
Mn627      Mn  0.92764583  0.54924454  0.05119151     1.10700
C628        C  0.86930812  0.65215658  0.00143453     1.00300
C629        C  0.86541386  0.45890907  0.98814105     1.00400
N630        N  0.00543030  0.50286946  0.91573604    -0.04900
N631        N  0.01634712  0.46762479  0.90176612    -0.60300
N632        N  0.97395515  0.59743434  0.91888172    -0.04200
N633        N  0.96303402  0.62867942  0.89824233    -0.57000
N634        N  0.01304963  0.59398042  0.91987341    -0.05500
N635        N  0.02957203  0.62306862  0.89956017    -0.59800
N636        N  0.96639111  0.50724712  0.91424285    -0.04500
N637        N  0.95008500  0.47516840  0.89937118    -0.57000
Mn638      Mn  0.04244034  0.54370508  0.95007268     1.20200
Mn639      Mn  0.93409046  0.55493530  0.94547065     1.10100
Cl640      Cl  0.98519727  0.54627149  0.00081432    -0.85000
C641        C  0.98151360  0.45084500  0.89172593     0.97300
C642        C  0.99782856  0.64443762  0.88644317     0.97100
N643        N  0.43358751  0.13208933  0.97869808    -0.05200
N644        N  0.40019669  0.14544393  0.96282418    -0.57300
N645        N  0.52125412  0.12659336  0.02616292    -0.04800
N646        N  0.55247825  0.14262590  0.04332989    -0.59400
N647        N  0.52495594  0.12772476  0.98676825    -0.04400
N648        N  0.55860159  0.14421994  0.97627043    -0.57200
N649        N  0.42984558  0.13028205  0.01812291    -0.04100
N650        N  0.39397735  0.14211648  0.02971747    -0.59800
C651        C  0.37591835  0.15137579  0.99504561     0.97000
C652        C  0.57547739  0.15325080  0.01165964     0.96800
N653        N  0.51060752  0.02092042  0.08766523    -0.05300
N654        N  0.54144052  0.00440176  0.10607826    -0.57900
N655        N  0.41996798  0.06606247  0.08318476    -0.03500
N656        N  0.38902697  0.08090575  0.10375300    -0.59100
N657        N  0.41777004  0.02730290  0.08058927    -0.05400
N658        N  0.38532984  0.01490290  0.09939088    -0.58100
N659        N  0.51256939  0.05972695  0.08929384    -0.03100
N660        N  0.54464210  0.07052169  0.10870669    -0.59200
Mn661      Mn  0.47099344  0.09710138  0.05532460     1.18400
C662        C  0.56241709  0.03581358  0.11918545     0.99100
C663        C  0.36743486  0.04867408  0.11369505     0.99800
N664        N  0.53114560  0.06784346  0.91462874    -0.05400
N665        N  0.56379533  0.08062145  0.89632977    -0.61700
N666        N  0.43654661  0.03498366  0.90471164    -0.04200
N667        N  0.40628793  0.02480885  0.88202505    -0.62400
N668        N  0.43878981  0.07376287  0.90693941    -0.04900
N669        N  0.41021154  0.09088849  0.88591337    -0.62000
N670        N  0.52940736  0.02899906  0.91209221    -0.03800
N671        N  0.56096481  0.01459249  0.89206200    -0.62700
Mn672      Mn  0.48244367  0.10184723  0.94594863     1.10700
C673        C  0.58245473  0.04708859  0.88239152     1.00300
C674        C  0.39015169  0.06002526  0.87039523     1.00400
N675        N  0.42295684  0.96689379  0.00854849    -0.04900
N676        N  0.39029550  0.94845453  0.01911433    -0.60300
N677        N  0.51897939  0.96402849  0.97769546    -0.04200
N678        N  0.55551987  0.95274911  0.96742890    -0.57000
N679        N  0.51417570  0.96238838  0.01703420    -0.05500
N680        N  0.54725243  0.95007980  0.03410640    -0.59800
N681        N  0.42681626  0.96786691  0.96910764    -0.04500
N682        N  0.39654828  0.94988620  0.95210201    -0.57000
Mn683      Mn  0.46584363  0.99290628  0.04926585     1.20200
Mn684      Mn  0.47782501  0.99736935  0.93966847     1.10100
Cl685      Cl  0.47420152  0.04725967  0.99745362    -0.85000
C686        C  0.37397203  0.93814026  0.98378327     0.97300
C687        C  0.57262936  0.94429791  0.00294429     0.97100
O688        O  0.77212222  0.66973362  0.77197312    -0.87200
C689        C  0.67027327  0.84145359  0.88112317     1.12800
O690        O  0.76103732  0.75893900  0.76362907    -1.35000
O691        O  0.63146695  0.75037538  0.84459459    -0.88700
O692        O  0.79555713  0.69288577  0.71321589    -0.89400
O693        O  0.71484667  0.73794455  0.68012006    -0.78200
O694        O  0.70534240  0.71052663  0.81325935    -1.00300
C695        C  0.62697442  0.80625203  0.71559295     1.22900
O696        O  0.72686288  0.82301990  0.72538896    -1.35200
Mn697      Mn  0.75171511  0.81932975  0.78494077     1.82100
O698        O  0.64444358  0.77298820  0.71304959    -0.77300
O699        O  0.60292429  0.79371793  0.80276392    -0.86700
C700        C  0.70661320  0.89756725  0.79795154     1.14000
C701        C  0.60186057  0.76350784  0.82521347     1.08700
O702        O  0.81011194  0.84113151  0.77252752    -0.78200
O703        O  0.69344131  0.79482742  0.79526050    -1.31900
O704        O  0.81312527  0.80933690  0.71753238    -0.97400
C705        C  0.69861103  0.85143674  0.63091761     1.07400
Mn706      Mn  0.64546403  0.83711547  0.79288310     1.48600
O707        O  0.73359062  0.83751333  0.63464508    -0.86600
Mn708      Mn  0.80625199  0.75254454  0.71832316     1.49600
O709        O  0.82412699  0.72443732  0.81857454    -0.90500
C710        C  0.68550207  0.69174911  0.78914789     1.20600
C711        C  0.85353605  0.73506046  0.79733799     1.12600
Mn712      Mn  0.70275373  0.76447050  0.73795647     1.81000
O713        O  0.68119085  0.88104794  0.77773571    -0.95600
Mn714      Mn  0.76369250  0.71682180  0.81145896     1.49300
C715        C  0.78172995  0.66564490  0.73522794     1.09200
Mn716      Mn  0.68260380  0.86875582  0.71981851     1.49900
C717        C  0.75974652  0.91353219  0.70001068     1.12100
O718        O  0.77052323  0.76640805  0.67266677    -1.01400
O719        O  0.64854402  0.85145872  0.85217153    -0.91100
C720        C  0.74446880  0.74600271  0.65790964     1.23400
O721        O  0.64295217  0.83154500  0.73545324    -1.01800
O722        O  0.68731129  0.80774100  0.88450823    -0.89200
O723        O  0.72293300  0.91223567  0.70816350    -0.88800
O724        O  0.85118060  0.74423119  0.76049663    -0.88900
Mn725      Mn  0.69246965  0.75806455  0.84684574     1.47900
O726        O  0.73842531  0.87839238  0.80502206    -0.77300
C727        C  0.82935561  0.83132195  0.74116517     1.16400
O728        O  0.68089305  0.70653209  0.75449931    -0.76100
O729        O  0.77614664  0.81338261  0.84369634    -0.75700
Mn730      Mn  0.77217828  0.82427512  0.68008310     1.51100
O731        O  0.67454582  0.85813971  0.65958859    -0.88000
O732        O  0.75027372  0.75734507  0.85161056    -0.95600
O733        O  0.78138060  0.88383700  0.69007282    -0.90600
C734        C  0.77115055  0.78335095  0.86524465     1.14200
C735        C  0.30438465  0.87350747  0.55753517     0.04100
C736        C  0.28727724  0.85828556  0.52256278    -0.12100
C737        C  0.29790986  0.87397587  0.48533098     0.01600
C738        C  0.32528868  0.90492337  0.48378106    -0.10600
C739        C  0.34242124  0.91957898  0.51881994     0.04100
C740        C  0.33175033  0.90395539  0.55574703    -0.10000
H741        H  0.26492438  0.83549834  0.52448502     0.09700
H742        H  0.33195453  0.91904486  0.45542346     0.07200
H743        H  0.34407284  0.91587709  0.58323051     0.07100
C744        C  0.16060071  0.70963802  0.51706558     0.04100
C745        C  0.12593444  0.68758906  0.51585269    -0.12100
C746        C  0.10369394  0.68450556  0.48074821     0.01600
C747        C  0.11864760  0.70108937  0.44498138    -0.10600
C748        C  0.15514673  0.72158879  0.44459461     0.04100
C749        C  0.17571321  0.72641628  0.48121652    -0.10000
H750        H  0.11458439  0.67519045  0.54365666     0.09700
H751        H  0.10149192  0.69890026  0.41767744     0.07200
H752        H  0.20217989  0.74433118  0.48218199     0.07100
C753        C  0.79995157  0.36600317  0.48269811     0.04100
C754        C  0.78390990  0.35504021  0.52024259    -0.12100
C755        C  0.80188863  0.36760205  0.55612431     0.01600
C756        C  0.83589694  0.39133755  0.55427530    -0.10600
C757        C  0.85192120  0.40273353  0.51711382     0.04100
C758        C  0.83388143  0.38986472  0.48171779    -0.10000
H759        H  0.75888577  0.33517079  0.52150024     0.09700
H760        H  0.85029742  0.40022813  0.58185136     0.07200
H761        H  0.84785618  0.39691769  0.45327663     0.07100
C762        C  0.65638195  0.23372401  0.51789403     0.04100
C763        C  0.66726961  0.25053904  0.48081271    -0.12100
C764        C  0.65106672  0.23587129  0.44481978     0.01600
C765        C  0.62421071  0.20445799  0.44593439    -0.10600
C766        C  0.61320641  0.18785725  0.48260385     0.04100
C767        C  0.62901471  0.20281253  0.51807405    -0.10000
H768        H  0.68993172  0.27304545  0.47971302     0.09700
H769        H  0.61318882  0.19199856  0.41812678     0.07200
H770        H  0.62232138  0.18757942  0.54567927     0.07100
C771        C  0.71579988  0.92627183  0.47151624     0.04100
C772        C  0.72916359  0.91124653  0.50759231    -0.12100
C773        C  0.70538982  0.91586091  0.54163764     0.01600
C774        C  0.67031518  0.93882061  0.54079143    -0.10600
C775        C  0.65791639  0.95542222  0.50456161     0.04100
C776        C  0.68088291  0.94925779  0.46982768    -0.10000
H777        H  0.75498748  0.89139017  0.50798812     0.09700
H778        H  0.65195732  0.94201741  0.56772178     0.07200
H779        H  0.67028360  0.95956689  0.44098360     0.07100
C780        C  0.78026657  0.72883444  0.54507483     0.04100
C781        C  0.76251443  0.74173722  0.50855479    -0.12100
C782        C  0.77730930  0.72861023  0.47014934     0.01600
C783        C  0.81064626  0.70222240  0.46946721    -0.10600
C784        C  0.82968600  0.69009566  0.50513381     0.04100
C785        C  0.81381038  0.70314811  0.54256824    -0.10000
H786        H  0.73778336  0.76278558  0.51002489     0.09700
H787        H  0.82230203  0.69108393  0.44103250     0.07200
H788        H  0.82860389  0.69456917  0.57003983     0.07100
C789        C  0.43661728  0.39423001  0.81187123     0.04100
C790        C  0.43843852  0.41597977  0.84778343    -0.12100
C791        C  0.47452303  0.41819248  0.86815263     0.01600
C792        C  0.50829587  0.39934612  0.85218911    -0.10600
C793        C  0.50667582  0.37857631  0.81560411     0.04100
C794        C  0.47138159  0.37763264  0.79459251    -0.10000
H795        H  0.41132201  0.42811977  0.86145358     0.09700
H796        H  0.53511641  0.39838078  0.86999489     0.07200
H797        H  0.47029200  0.36079630  0.76673734     0.07100
C798        C  0.51373352  0.24199825  0.68554824     0.04100
C799        C  0.51546149  0.21081916  0.65680025    -0.12100
C800        C  0.48035425  0.19533723  0.63975115     0.01600
C801        C  0.44328023  0.21386583  0.64917071    -0.10600
C802        C  0.44004762  0.24515521  0.67737753     0.04100
C803        C  0.47545024  0.25794623  0.69652377    -0.10000
H804        H  0.54400859  0.19666810  0.64997159     0.09700
H805        H  0.41626285  0.20208424  0.63655317     0.07200
H806        H  0.47312919  0.27988164  0.72044731     0.07100
C807        C  0.44800105  0.85397283  0.32288894     0.04100
C808        C  0.44861035  0.88693637  0.34937704    -0.12100
C809        C  0.48474255  0.90301676  0.36326194     0.01600
C810        C  0.52116446  0.88452321  0.35111168    -0.10600
C811        C  0.52216414  0.85193108  0.32408283     0.04100
C812        C  0.48523343  0.83733980  0.30969024    -0.10000
H813        H  0.42057721  0.90144013  0.35759418     0.09700
H814        H  0.54903377  0.89710398  0.36066061     0.07200
H815        H  0.48555899  0.81417592  0.28693200     0.07100
C816        C  0.52748665  0.69158937  0.19350940     0.04100
C817        C  0.49330438  0.70368154  0.21498965    -0.12100
C818        C  0.45617689  0.69992682  0.19765865     0.01600
C819        C  0.45291351  0.68073431  0.16021290    -0.10600
C820        C  0.48667130  0.66774198  0.13911397     0.04100
C821        C  0.52420982  0.67228941  0.15627046    -0.10000
H822        H  0.49591246  0.72013684  0.24296421     0.09700
H823        H  0.42463908  0.67983965  0.14499599     0.07200
H824        H  0.55091195  0.66451739  0.13906948     0.07100
C825        C  0.79739887  0.49352756  0.31427433     0.04100
C826        C  0.82680837  0.49523789  0.34378247    -0.12100
C827        C  0.84146717  0.53179750  0.35610554     0.01600
C828        C  0.82737019  0.56631711  0.33804931    -0.10600
C829        C  0.79775304  0.56539113  0.30866691     0.04100
C830        C  0.78257514  0.52862762  0.29686703    -0.10000
H831        H  0.83873199  0.46805258  0.35647567     0.09700
H832        H  0.84168952  0.59380682  0.34544555     0.07200
H833        H  0.76094083  0.52715284  0.27297652     0.07100
C834        C  0.65607388  0.60663406  0.18029670     0.04100
C835        C  0.63232391  0.60431937  0.14539077    -0.12100
C836        C  0.62390292  0.56748186  0.12738148     0.01600
C837        C  0.63952436  0.53305955  0.14433395    -0.10600
C838        C  0.66305100  0.53383229  0.17887096     0.04100
C839        C  0.67147946  0.57095936  0.19687665    -0.10000
H840        H  0.62127556  0.63134452  0.13169525     0.09700
H841        H  0.63504467  0.50526995  0.12875289     0.07200
H842        H  0.69131368  0.57216503  0.22230660     0.07100
C843        C  0.49738374  0.72098423  0.81369914     0.04100
C844        C  0.46074082  0.73588218  0.80012778    -0.12100
C845        C  0.42510760  0.72168879  0.81678870     0.01600
C846        C  0.42605206  0.69344640  0.84730511    -0.10600
C847        C  0.46239094  0.67744602  0.85971569     0.04100
C848        C  0.49758853  0.68917204  0.84071676    -0.10000
H849        H  0.45990442  0.76036102  0.77917499     0.09700
H850        H  0.39854708  0.68494209  0.86212514     0.07200
H851        H  0.52550115  0.67542025  0.84944725     0.07100
C852        C  0.46742219  0.87499863  0.69060578     0.04100
C853        C  0.46548889  0.90976760  0.66729669    -0.12100
C854        C  0.49974497  0.92559400  0.64935047     0.01600
C855        C  0.53662441  0.90598820  0.65511494    -0.10600
C856        C  0.53921145  0.87092545  0.67808160     0.04100
C857        C  0.50441866  0.85580469  0.69586544    -0.10000
H858        H  0.43736564  0.92564351  0.66440923     0.09700
H859        H  0.56352695  0.91831137  0.64230488     0.07200
H860        H  0.50625835  0.83004389  0.71508398     0.07100
C861        C  0.78313362  0.58564917  0.65868511     0.04100
C862        C  0.76914712  0.55046751  0.67520663    -0.12100
C863        C  0.79096241  0.51543793  0.66961493     0.01600
C864        C  0.82630165  0.51553827  0.64650603    -0.10600
C865        C  0.83967590  0.55044231  0.62931747     0.04100
C866        C  0.81704419  0.58529640  0.63396806    -0.10000
H867        H  0.74370518  0.55122865  0.69567750     0.09700
H868        H  0.84544577  0.48942167  0.64477878     0.07200
H869        H  0.82845267  0.61309214  0.62278860     0.07100
C870        C  0.65756749  0.57799939  0.80404418     0.04100
C871        C  0.63074155  0.57812647  0.83734010    -0.12100
C872        C  0.62084815  0.54297373  0.85772862     0.01600
C873        C  0.63691026  0.50651645  0.84345862    -0.10600
C874        C  0.66250993  0.50433042  0.80952896     0.04100
C875        C  0.67279357  0.54038789  0.79005971    -0.10000
H876        H  0.61747825  0.60570257  0.84803876     0.09700
H877        H  0.63023858  0.47950612  0.85948215     0.07200
H878        H  0.69394628  0.53932190  0.76518396     0.07100
C879        C  0.30414130  0.48706913  0.82118359     0.04100
C880        C  0.32632687  0.49136689  0.85677819    -0.12100
C881        C  0.33198463  0.52899110  0.87441803     0.01600
C882        C  0.31461804  0.56224043  0.85624115    -0.10600
C883        C  0.29201290  0.55876068  0.82094336     0.04100
C884        C  0.28681229  0.52104062  0.80362428    -0.10000
H885        H  0.33882923  0.46521167  0.87094737     0.09700
H886        H  0.31740338  0.59087469  0.87077392     0.07200
H887        H  0.26816200  0.51805804  0.77743558     0.07100
C888        C  0.16393275  0.60556596  0.66433555     0.04100
C889        C  0.13161874  0.60226441  0.63841750    -0.12100
C890        C  0.11295575  0.56605638  0.63327713     0.01600
C891        C  0.12718085  0.53281995  0.65381888    -0.10600
C892        C  0.16021086  0.53511780  0.67944906     0.04100
C893        C  0.17848044  0.57194613  0.68479100    -0.10000
H894        H  0.11987760  0.62847962  0.62364807     0.09700
H895        H  0.11067800  0.50564269  0.65155344     0.07200
H896        H  0.20234615  0.57483004  0.70622925     0.07100
N897        N  0.02687687  0.46583010  0.48050798    -0.05200
N898        N  0.05734444  0.44539497  0.46479625    -0.57300
N899        N  0.93743931  0.46195594  0.52846227    -0.04800
N900        N  0.90849128  0.44174931  0.54573375    -0.59400
N901        N  0.93502258  0.45963738  0.48917637    -0.04400
N902        N  0.90453366  0.43795405  0.47871508    -0.57200
N903        N  0.02984483  0.46776555  0.51987821    -0.04100
N904        N  0.06251682  0.44864110  0.53168587    -0.59800
C905        C  0.07960136  0.43482160  0.49692538     0.97000
C906        C  0.88824425  0.42683474  0.51417175     0.96800
N907        N  0.93221419  0.57248617  0.58554917    -0.05300
N908        N  0.89762454  0.58507861  0.60020061    -0.57900
N909        N  0.02682921  0.53909892  0.58118071    -0.03500
N910        N  0.05949166  0.52840913  0.60004564    -0.59100
N911        N  0.02380049  0.57798365  0.57903872    -0.05400
N912        N  0.05460629  0.59453828  0.59645663    -0.58100
N913        N  0.93535685  0.53357121  0.58772962    -0.03100
N914        N  0.90283741  0.51902366  0.60411119    -0.59200
Mn915      Mn  0.98267157  0.49968067  0.55584446     1.18400
C916        C  0.87973097  0.55149360  0.61166266     0.99100
C917        C  0.07656759  0.56317010  0.60933323     0.99800
N918        N  0.92327335  0.52124997  0.42079852    -0.05400
N919        N  0.89530971  0.50404461  0.39956166    -0.61700
N920        N  0.00813993  0.56736082  0.40972333    -0.04200
N921        N  0.02969723  0.58198057  0.38037882    -0.62400
N922        N  0.01252887  0.52854515  0.41116390    -0.04900
N923        N  0.03692830  0.51587497  0.38235864    -0.62000
N924        N  0.91910028  0.56013828  0.41951982    -0.03800
N925        N  0.88838005  0.57010600  0.39743017    -0.62700
Mn926      Mn  0.97472616  0.49278106  0.44967332     1.10700
C927        C  0.87370611  0.53497015  0.38535587     1.00300
C928        C  0.04745303  0.54965661  0.36378446     1.00400
N929        N  0.01360491  0.63929072  0.50986360    -0.04900
N930        N  0.04672453  0.65714411  0.51963867    -0.60300
N931        N  0.91724325  0.63256522  0.48039323    -0.04200
N932        N  0.88422413  0.65090068  0.46854783    -0.57000
N933        N  0.92083240  0.63561920  0.51953193    -0.05500
N934        N  0.89017436  0.65597003  0.53521629    -0.59800
N935        N  0.01041894  0.63707243  0.47059342    -0.04500
N936        N  0.04156638  0.65348912  0.45275009    -0.57000
Mn937      Mn  0.97280140  0.60754508  0.54976665     1.20200
Mn938      Mn  0.96337037  0.60023447  0.44429369     1.10100
Cl939      Cl  0.97358493  0.54999264  0.49985155    -0.85000
C940        C  0.06392454  0.66607432  0.48388916     0.97300
C941        C  0.86735211  0.66539099  0.50307868     0.97100
N942        N  0.50579303  0.46992294  0.05201349    -0.05200
N943        N  0.52181970  0.45265302  0.08368984    -0.57300
N944        N  0.46033598  0.46233530  0.96302385    -0.04800
N945        N  0.44474175  0.44565266  0.93109896    -0.59400
N946        N  0.49946206  0.46335696  0.95960767    -0.04400
N947        N  0.51120441  0.44720670  0.92521637    -0.57200
N948        N  0.46662324  0.46915192  0.05464167    -0.04100
N949        N  0.45523316  0.45182197  0.08793012    -0.59800
C950        C  0.48971398  0.44182446  0.10586529     0.97000
C951        C  0.47676767  0.43634869  0.90795938     0.96800
N952        N  0.38645071  0.55995867  0.96034298    -0.05300
N953        N  0.36524040  0.56950359  0.92839575    -0.57900
N954        N  0.39440987  0.52845287  0.05695259    -0.03500
N955        N  0.37491429  0.51564327  0.08908421    -0.59100
N956        N  0.39170654  0.56725108  0.05460617    -0.05400
N957        N  0.37025452  0.58168471  0.08531100    -0.58100
N958        N  0.38925686  0.52121945  0.96348448    -0.03100
N959        N  0.37019577  0.50357879  0.93390022    -0.59200
Mn960      Mn  0.42699090  0.49409635  0.00982393     1.18400
C961        C  0.35512128  0.53396843  0.91216955     0.99100
C962        C  0.35998068  0.54914199  0.10683200     0.99800
N963        N  0.56424854  0.52816798  0.94824323    -0.05400
N964        N  0.58531755  0.51285306  0.91771568    -0.61700
N965        N  0.56706603  0.57578303  0.03814462    -0.04200
N966        N  0.58616045  0.59365100  0.06763794    -0.62400
N967        N  0.56912246  0.53709916  0.04197906    -0.04900
N968        N  0.58980574  0.52776829  0.07415371    -0.62000
N969        N  0.56134663  0.56688664  0.94483723    -0.03800
N970        N  0.58041803  0.57874055  0.91206451    -0.62700
Mn971      Mn  0.53592012  0.49819080  0.00063056     1.10700
C972        C  0.59525535  0.54472681  0.89514228     1.00300
C973        C  0.60039769  0.56329684  0.08992175     1.00400
N974        N  0.45763883  0.63203204  0.04415629    -0.04900
N975        N  0.44734908  0.64469661  0.08049881    -0.60300
N976        N  0.48917669  0.62706977  0.94739365    -0.04200
N977        N  0.49985115  0.64390124  0.91352345    -0.57000
N978        N  0.45006920  0.62640076  0.95099939    -0.05500
N979        N  0.43338010  0.64295783  0.91936024    -0.59800
N980        N  0.49662474  0.63391351  0.03928940    -0.04500
N981        N  0.51335666  0.64777358  0.07201023    -0.57000
Mn982      Mn  0.42020331  0.59808516  0.00255653     1.20200
Mn983      Mn  0.52923544  0.60228291  0.99180551     1.10100
Cl984      Cl  0.47807324  0.54817895  0.00117164    -0.85000
C985        C  0.48241890  0.65437259  0.09736393     0.97300
C986        C  0.46490017  0.65346572  0.89622052     0.97100
N987        N  0.50282885  0.10634715  0.58394459    -0.05200
N988        N  0.51545295  0.13918135  0.60152269    -0.57300
N989        N  0.47134724  0.01127390  0.59391061    -0.04800
N990        N  0.46108718  0.98013274  0.61534331    -0.59400
N991        N  0.51036753  0.01331040  0.59097998    -0.04400
N992        N  0.52747672  0.98340842  0.61029314    -0.57200
N993        N  0.46391111  0.10424071  0.58676521    -0.04100
N994        N  0.44914073  0.13582603  0.60614978    -0.59800
C995        C  0.48162473  0.15761882  0.61524801     0.97000
C996        C  0.49633645  0.96295442  0.62561909     0.96800
N997        N  0.40220654  0.99865857  0.49166281    -0.05300
N998        N  0.38139647  0.96787658  0.48104855    -0.57900
N999        N  0.39884965  0.09314413  0.52220157    -0.03500
N1000       N  0.38623653  0.12886697  0.53298711    -0.59100
N1001       N  0.39704186  0.08866361  0.48286546    -0.05400
N1002       N  0.38313573  0.12133936  0.46627100    -0.58100
N1003       N  0.40303991  0.00252591  0.53101715    -0.03100
N1004       N  0.38253403  0.97403121  0.54811794    -0.59200
Mn1005     Mn  0.43295231  0.05265441  0.55977218     1.18400
C1006       C  0.36943447  0.95277569  0.51635403     0.99100
C1007       C  0.37663656  0.14600709  0.49784732     0.99800
N1008       N  0.57230838  0.01409981  0.51982217    -0.05400
N1009       N  0.60235721  0.99402971  0.53508295    -0.61700
N1010       N  0.56050208  0.09886873  0.47108747    -0.04200
N1011       N  0.57764004  0.12943458  0.45365297    -0.62400
N1012       N  0.56151382  0.10269297  0.51053054    -0.04900
N1013       N  0.57904278  0.13567652  0.52065668    -0.62000
N1014       N  0.57160384  0.00977854  0.48042186    -0.03800
N1015       N  0.60159302  0.98684498  0.46814304    -0.62700
Mn1016     Mn  0.53757530  0.05910615  0.55218704     1.10700
C1017       C  0.62013762  0.97712717  0.50264821     1.00300
C1018       C  0.58891328  0.15213019  0.48515218     1.00400
N1019       N  0.45463443  0.08333362  0.41100366    -0.04900
N1020       N  0.43638243  0.11202488  0.39124072    -0.60300
N1021       N  0.50222184  0.99384899  0.41709113    -0.04200
N1022       N  0.51682998  0.96244233  0.39714025    -0.57000
N1023       N  0.46314253  0.99183548  0.41993740    -0.05500
N1024       N  0.45048020  0.95924182  0.40199765    -0.59800
N1025       N  0.49343857  0.08637442  0.40802640    -0.04500
N1026       N  0.50257492  0.11746656  0.38605672    -0.57000
Mn1027     Mn  0.42806188  0.04014213  0.45065427     1.20200
Mn1028     Mn  0.53298419  0.04686995  0.44287051     1.10100
Cl1029     Cl  0.48304261  0.04929385  0.50137141    -0.85000
C1030       C  0.46663513  0.13309648  0.37566751     0.97300
C1031       C  0.48420359  0.94081920  0.38789525     0.97100
O1032       O  0.15842883  0.40414180  0.28737339    -0.87200
C1033       C  0.18524482  0.18453832  0.31073111     1.12800
O1034       O  0.19640086  0.33674473  0.23892329    -1.35000
O1035       O  0.22240700  0.26647444  0.37023486    -0.88700
O1036       O  0.17959501  0.42442587  0.22686539    -0.89400
O1037       O  0.27931949  0.38272828  0.25229001    -0.78200
O1038       O  0.18517861  0.33199087  0.32780673    -1.00300
C1039       C  0.32758957  0.27919439  0.28386513     1.22900
O1040       O  0.26206821  0.29713825  0.20815962    -1.35200
Mn1041     Mn  0.20208599  0.27675832  0.21702987     1.82100
O1042       O  0.31078347  0.31260671  0.28852724    -0.77300
O1043       O  0.27537582  0.23431748  0.34342886    -0.86700
C1044       C  0.23792253  0.19416612  0.20572955     1.14000
C1045       C  0.25722427  0.25180714  0.37242766     1.08700
O1046       O  0.18222382  0.28579285  0.15708595    -0.78200
O1047       O  0.22538444  0.27026430  0.27744766    -1.31900
O1048       O  0.21427508  0.33925029  0.14908653    -0.97400
C1049       C  0.35868430  0.31948667  0.18707959     1.07400
Mn1050     Mn  0.26564078  0.22125467  0.28325493     1.48600
O1051       O  0.33185883  0.34518928  0.17824030    -0.86600
Mn1052     Mn  0.19542724  0.37763909  0.19013520     1.49600
O1053       O  0.10622067  0.35119150  0.23873030    -0.90500
C1054       C  0.21189724  0.35043258  0.34354576     1.20600
C1055       C  0.10545586  0.35603310  0.20088916     1.12600
Mn1056     Mn  0.25383040  0.32636724  0.26562338     1.81000
O1057       O  0.26427207  0.20909286  0.22553028    -0.95600
Mn1058     Mn  0.14976539  0.34438941  0.28258949     1.49300
C1059       C  0.16680563  0.43060558  0.26223355     1.09200
Mn1060     Mn  0.30314570  0.24810639  0.20685303     1.49900
C1061       C  0.28632420  0.25968223  0.11693757     1.12100
O1062       O  0.25330152  0.38618916  0.19457533    -1.01400
O1063       O  0.22049901  0.18162232  0.29658525    -0.91100
C1064       C  0.27254354  0.40240850  0.22088694     1.23400
O1065       O  0.31034278  0.25344674  0.26508915    -1.01800
O1066       O  0.16909434  0.21634842  0.32271860    -0.89200
O1067       O  0.29098964  0.23692768  0.14678903    -0.88800
O1068       O  0.13565837  0.36537810  0.17969135    -0.88900
Mn1069     Mn  0.18173209  0.27475727  0.32484690     1.47900
O1070       O  0.20892540  0.21648874  0.19685697    -0.77300
C1071       C  0.19312236  0.31365519  0.13447808     1.16400
O1072       O  0.24382852  0.35362329  0.32352154    -0.76100
O1073       O  0.14286034  0.25844891  0.22880024    -0.75700
Mn1074     Mn  0.27160136  0.33970862  0.16200211     1.51100
O1075       O  0.35167949  0.28318400  0.19288936    -0.88000
O1076       O  0.14153037  0.28761924  0.28564922    -0.95600
O1077       O  0.28555333  0.29708001  0.11916987    -0.90600
C1078       C  0.12525133  0.26586206  0.26169110     1.14200
C1079       C  0.66767508  0.65319872  0.80303311    -0.15500
C1080       C  0.67088586  0.61679694  0.78461632    -0.30600
H1081       H  0.65617367  0.65458026  0.83358659     0.13600
H1082       H  0.68621923  0.61491697  0.75568772     0.14100
C1083       C  0.77659987  0.62701623  0.71708130    -0.15500
C1084       C  0.77197614  0.62332603  0.67729233    -0.30600
H1085       H  0.77973276  0.60115688  0.73622447     0.13600
H1086       H  0.77010995  0.64942287  0.65834907     0.14100
C1087       C  0.58815312  0.81619857  0.69672884    -0.15500
C1088       C  0.57924087  0.85467686  0.68846923    -0.30600
H1089       H  0.56664064  0.79306352  0.69166496     0.13600
H1090       H  0.60254818  0.87649774  0.69129178     0.14100
C1091       C  0.56469993  0.74232093  0.83084229    -0.15500
C1092       C  0.53470518  0.74219885  0.80435201    -0.30600
H1093       H  0.56254657  0.72603485  0.85875772     0.13600
H1094       H  0.53653479  0.76000606  0.77729362     0.14100
C1095       C  0.74930877  0.72901481  0.61574956    -0.15500
C1096       C  0.76942917  0.74748669  0.58545911    -0.30600
H1097       H  0.73605748  0.70050531  0.60951721     0.13600
H1098       H  0.78105128  0.77680986  0.59124617     0.14100
C1099       C  0.68830539  0.86790644  0.59255618    -0.15500
C1100       C  0.71511944  0.89191403  0.57601471    -0.30600
H1101       H  0.65772122  0.86726115  0.58217093     0.13600
H1102       H  0.74543084  0.89326970  0.58721576     0.14100
C1103       C  0.92700415  0.73824105  0.79736098    -0.15500
C1104       C  0.89213140  0.73528230  0.81724040    -0.30600
H1105       H  0.92760035  0.74647670  0.76582225     0.13600
H1106       H  0.89170403  0.72937888  0.84930926     0.14100
C1107       C  0.86927245  0.84728295  0.73054264    -0.15500
C1108       C  0.87958298  0.85240647  0.69138538    -0.30600
H1109       H  0.88987751  0.85469031  0.75426204     0.13600
H1110       H  0.85702499  0.84792889  0.66867029     0.14100
C1111       C  0.68108726  0.96908720  0.79620693    -0.15500
C1112       C  0.69911718  0.93845585  0.81586188    -0.30600
H1113       H  0.67366566  0.96505025  0.76476471     0.13600
H1114       H  0.70908199  0.94354209  0.84638710     0.14100
C1115       C  0.81669450  0.95760360  0.69972925    -0.15500
C1116       C  0.77729463  0.95212231  0.70162652    -0.30600
H1117       H  0.83751078  0.93267299  0.69697802     0.13600
H1118       H  0.75642857  0.97716628  0.70195367     0.14100
C1119       C  0.78056210  0.74861129  0.93071397    -0.15500
C1120       C  0.78979128  0.77899894  0.90592783    -0.30600
H1121       H  0.75861437  0.72739678  0.92094534     0.13600
H1122       H  0.81204852  0.80014681  0.91507583     0.14100
C1123       C  0.68407358  0.86506802  0.94910218    -0.15500
C1124       C  0.67515871  0.87223507  0.91105270    -0.30600
H1125       H  0.69505594  0.83599303  0.95815391     0.13600
H1126       H  0.66600776  0.90198816  0.90220258     0.14100
C1127       C  0.79291048  0.63803753  0.30391259    -0.15500
C1128       C  0.78682635  0.60226897  0.28711174    -0.30600
H1129       H  0.80004885  0.64066814  0.33553606     0.13600
H1130       H  0.77728150  0.60001599  0.25607894     0.14100
C1131       C  0.67510526  0.65963456  0.23223227    -0.15500
C1132       C  0.66926012  0.64691779  0.19382240    -0.30600
H1133       H  0.66831025  0.64046184  0.25738981     0.13600
H1134       H  0.67363866  0.66814231  0.16977638     0.14100
C1135       C  0.56798455  0.74750078  0.21141641    -0.15500
C1136       C  0.56581917  0.70840808  0.20363408    -0.30600
H1137       H  0.54129597  0.76556198  0.21690004     0.13600
H1138       H  0.59252307  0.69096480  0.19640957     0.14100
C1139       C  0.59476561  0.82693709  0.32495167    -0.15500
C1140       C  0.56148069  0.83888590  0.30475983    -0.30600
H1141       H  0.59258017  0.82238093  0.35718014     0.13600
H1142       H  0.56318056  0.84050922  0.27223058     0.14100
C1143       C  0.70680252  0.87857343  0.41995941    -0.15500
C1144       C  0.72973246  0.90661440  0.43551498    -0.30600
H1145       H  0.67799551  0.87150751  0.43323600     0.13600
H1146       H  0.75747617  0.91565739  0.42129616     0.14100
C1147       C  0.77797085  0.74407142  0.39495123    -0.15500
C1148       C  0.75818227  0.74301294  0.43112830    -0.30600
H1149       H  0.80935899  0.73589578  0.39449520     0.13600
H1150       H  0.72799177  0.75508304  0.43276993     0.14100
C1151       C  0.66837696  0.85296589  0.09360646    -0.15500
C1152       C  0.67232562  0.89223044  0.09039371    -0.30600
H1153       H  0.66627017  0.83419945  0.06694678     0.13600
H1154       H  0.67301325  0.91141398  0.11677725     0.14100
C1155       C  0.78295648  0.77839160  0.10275787    -0.15500
C1156       C  0.78226802  0.74309961  0.08323181    -0.30600
H1157       H  0.79622095  0.80357873  0.08782472     0.13600
H1158       H  0.77155143  0.71753341  0.09958801     0.14100
C1159       C  0.70394674  0.94331685  0.19360298    -0.15500
C1160       C  0.66677915  0.95988218  0.19615566    -0.30600
H1161       H  0.72722986  0.95858899  0.17723532     0.13600
H1162       H  0.64330641  0.94270412  0.21010438     0.14100
C1163       C  0.77665657  0.99931317  0.30027360    -0.15500
C1164       C  0.79569891  0.96408275  0.30056480    -0.30600
H1165       H  0.74482213  0.00120068  0.29473829     0.13600
H1166       H  0.82784677  0.96274460  0.30423887     0.14100
C1167       C  0.91149841  0.84690314  0.28779327    -0.15500
C1168       C  0.88207459  0.86073696  0.26302142    -0.30600
H1169       H  0.90639520  0.81932691  0.30353667     0.13600
H1170       H  0.88727174  0.88773858  0.24631956     0.14100
C1171       C  0.92462755  0.75158230  0.18562160    -0.15500
C1172       C  0.88813917  0.74145747  0.17534817    -0.30600
H1173       H  0.93042040  0.76582655  0.21434090     0.13600
H1174       H  0.88285483  0.72949340  0.14542775     0.14100
C1175       C  0.17579877  0.64580797  0.67527018    -0.15500
C1176       C  0.21318168  0.65686867  0.68269530    -0.30600
H1177       H  0.15170226  0.66776872  0.67774140     0.13600
H1178       H  0.23842435  0.63679158  0.67760894     0.14100
C1179       C  0.28721741  0.63036928  0.80767348    -0.15500
C1180       C  0.27099493  0.59430525  0.80458754    -0.30600
H1181       H  0.31780187  0.63257074  0.81776187     0.13600
H1182       H  0.24110399  0.59116770  0.79289582     0.14100
C1183       C  0.37169031  0.73923169  0.77035565    -0.15500
C1184       C  0.38675037  0.74010257  0.80740199    -0.30600
H1185       H  0.38840511  0.72551610  0.74556705     0.13600
H1186       H  0.36883385  0.75132876  0.83263022     0.14100
C1187       C  0.39503731  0.86480425  0.69571192    -0.15500
C1188       C  0.43125623  0.86048241  0.71200016    -0.30600
H1189       H  0.39288730  0.87592749  0.66520389     0.13600
H1190       H  0.43432848  0.84752849  0.74164756     0.14100
C1191       C  0.28988674  0.82391167  0.60800344    -0.15500
C1192       C  0.29063088  0.86172269  0.59680897    -0.30600
H1193       H  0.30075124  0.80012806  0.58832875     0.13600
H1194       H  0.28268483  0.88546216  0.61792164     0.14100
C1195       C  0.17886495  0.75649032  0.57007195    -0.15500
C1196       C  0.17549039  0.71881336  0.55788956    -0.30600
H1197       H  0.17885902  0.77980575  0.54765190     0.13600
H1198       H  0.17407174  0.69570806  0.58048599     0.14100
C1199       C  0.08789049  0.76977215  0.79793808    -0.15500
C1200       C  0.07541059  0.73238992  0.79900148    -0.30600
H1201       H  0.06937296  0.79398460  0.80987255     0.13600
H1202       H  0.09546592  0.70803197  0.79025745     0.14100
C1203       C  0.06494470  0.85114881  0.68137489    -0.15500
C1204       C  0.02929205  0.83389695  0.68635468    -0.30600
H1205       H  0.06581124  0.88207962  0.67253284     0.13600
H1206       H  0.02760844  0.80383341  0.69768051     0.14100
C1207       C  0.28494074  0.99582198  0.78944237    -0.15500
C1208       C  0.28846110  0.96064884  0.80798160    -0.30600
H1209       H  0.27351468  0.99732777  0.75903662     0.13600
H1210       H  0.29811850  0.95951594  0.83902341     0.14100
C1211       C  0.17847107  0.95581028  0.69213429    -0.15500
C1212       C  0.16927956  0.93709035  0.72651611    -0.30600
H1213       H  0.19813427  0.94165991  0.66991316     0.13600
H1214       H  0.14875191  0.95061862  0.74830137     0.14100
C1215       C  0.24812353  0.85108860  0.89003214    -0.15500
C1216       C  0.28561036  0.85490757  0.90277582    -0.30600
H1217       H  0.22287637  0.86045158  0.90877244     0.13600
H1218       H  0.31052270  0.84842191  0.88237296     0.14100
C1219       C  0.18523162  0.73800286  0.94599739    -0.15500
C1220       C  0.17003181  0.73013522  0.90942002    -0.30600
H1221       H  0.21371948  0.75264678  0.94830426     0.13600
H1222       H  0.14043497  0.71780251  0.90730855     0.14100
C1223       C  0.79225651  0.44485553  0.68136256    -0.15500
C1224       C  0.78085319  0.48085377  0.69380327    -0.30600
H1225       H  0.80408469  0.44028252  0.65105282     0.13600
H1226       H  0.76645404  0.48524986  0.72302063     0.14100
C1227       C  0.67372259  0.43942908  0.77016704    -0.15500
C1228       C  0.68328323  0.46489552  0.80046539    -0.30600
H1229       H  0.65182377  0.44912802  0.74839732     0.13600
H1230       H  0.70411267  0.45444832  0.82294329     0.14100
C1231       C  0.57646607  0.36398382  0.81188927    -0.15500
C1232       C  0.53998011  0.35264967  0.80318869    -0.30600
H1233       H  0.58144498  0.39454232  0.82111462     0.13600
H1234       H  0.53431627  0.32315554  0.79139490     0.14100
C1235       C  0.58447036  0.26828206  0.69216433    -0.15500
C1236       C  0.55089917  0.25264871  0.70891929    -0.30600
H1237       H  0.58353986  0.27669938  0.66072574     0.13600
H1238       H  0.55049326  0.24710967  0.74104504     0.14100
C1239       C  0.66312356  0.23393693  0.59206708    -0.15500
C1240       C  0.67793206  0.24344597  0.55548231    -0.30600
H1241       H  0.63239208  0.22499484  0.59558612     0.13600
H1242       H  0.70788542  0.25499000  0.55275665     0.14100
C1243       C  0.75170587  0.34846469  0.60864390    -0.15500
C1244       C  0.78972635  0.35176692  0.59566390    -0.30600
H1245       H  0.72715392  0.35923697  0.59049364     0.13600
H1246       H  0.81382003  0.34359008  0.61574294     0.14100
C1247       C  0.77757266  0.09535171  0.70207821    -0.15500
C1248       C  0.78787064  0.13280149  0.69892472    -0.30600
H1249       H  0.74721016  0.08708862  0.70956459     0.13600
H1250       H  0.81895154  0.13941271  0.69223234     0.14100
C1251       C  0.70260857  0.15067481  0.81840654    -0.15500
C1252       C  0.68344754  0.12079473  0.79897377    -0.30600
H1253       H  0.71326503  0.14562043  0.84866656     0.13600
H1254       H  0.67540698  0.12522676  0.76777843     0.14100
C1255       C  0.89909175  0.34680404  0.83615144    -0.15500
C1256       C  0.89596682  0.33992971  0.79651307    -0.30600
H1257       H  0.87271162  0.35317018  0.85457877     0.13600
H1258       H  0.92210846  0.33504296  0.77736122     0.14100
C1259       C  0.90056457  0.24484809  0.70382654    -0.15500
C1260       C  0.87053234  0.22479576  0.72223565    -0.30600
H1261       H  0.89559231  0.27586575  0.69665411     0.13600
H1262       H  0.87616097  0.19463076  0.73214021     0.14100
C1263       C  0.79513454  0.35741875  0.90603784    -0.15500
C1264       C  0.79464231  0.32004921  0.89091171    -0.30600
H1265       H  0.78480857  0.38159515  0.88715390     0.13600
H1266       H  0.80716702  0.29562321  0.90800687     0.14100
C1267       C  0.67889535  0.21842856  0.93669555    -0.15500
C1268       C  0.67838434  0.25669601  0.92675128    -0.30600
H1269       H  0.67974692  0.19615883  0.91283925     0.13600
H1270       H  0.67670287  0.27926751  0.95026110     0.14100
C1271       C  0.66497683  0.46038808  0.18456547    -0.15500
C1272       C  0.68234837  0.49573664  0.19188017    -0.30600
H1273       H  0.63393416  0.45991990  0.17567504     0.13600
H1274       H  0.71237637  0.49656299  0.20369194     0.14100
C1275       C  0.74895854  0.44247406  0.29537637    -0.15500
C1276       C  0.78669485  0.45444838  0.29863741    -0.30600
H1277       H  0.72421023  0.46160684  0.30500023     0.13600
H1278       H  0.81118039  0.43372468  0.29217937     0.14100
C1279       C  0.79148054  0.36433300  0.40846590    -0.15500
C1280       C  0.78486510  0.34805249  0.44487120    -0.30600
H1281       H  0.80316212  0.39404266  0.40628320     0.13600
H1282       H  0.77103652  0.31922837  0.44681354     0.14100
C1283       C  0.67028998  0.28451136  0.39223405    -0.15500
C1284       C  0.66703855  0.24706939  0.40529298    -0.30600
H1285       H  0.66010885  0.30947657  0.41068008     0.13600
H1286       H  0.67440139  0.22256312  0.38491076     0.14100
C1287       C  0.67018234  0.12458572  0.21565609    -0.15500
C1288       C  0.67023222  0.11101208  0.17772003    -0.30600
H1289       H  0.66795166  0.10336911  0.24001397     0.13600
H1290       H  0.67117183  0.13238174  0.15340931     0.14100
C1291       C  0.78418301  0.16064055  0.27439037    -0.15500
C1292       C  0.78424799  0.14614368  0.31162338    -0.30600
H1293       H  0.79604079  0.14316575  0.24922769     0.13600
H1294       H  0.77497840  0.16468482  0.33708801     0.14100
C1295       C  0.76321122  0.34874304  0.06962917    -0.15500
C1296       C  0.80182907  0.35020490  0.05911390    -0.30600
H1297       H  0.74073105  0.35037810  0.04639939     0.13600
H1298       H  0.82398195  0.34980847  0.08272108     0.14100
C1299       C  0.70159736  0.23470592  0.10640483    -0.15500
C1300       C  0.66675756  0.23866095  0.08727217    -0.30600
H1301       H  0.72584419  0.21733553  0.09278791     0.13600
H1302       H  0.64187168  0.25410986  0.10207755     0.14100
C1303       C  0.03199448  0.34774228  0.19840449    -0.15500
C1304       C  0.06762797  0.35194423  0.17978098    -0.30600
H1305       H  0.03029419  0.34051901  0.23016561     0.13600
H1306       H  0.06884402  0.35658329  0.14747650     0.14100
C1307       C  0.86636826  0.31693079  0.18452734    -0.15500
C1308       C  0.88243668  0.35318863  0.18597528    -0.30600
H1309       H  0.88319289  0.29180592  0.17212882     0.13600
H1310       H  0.86421770  0.37838883  0.19613327     0.14100
C1311       C  0.07593819  0.24285595  0.31112089    -0.15500
C1312       C  0.08583393  0.24934086  0.27219332    -0.30600
H1313       H  0.09822484  0.24701826  0.33411530     0.13600
H1314       H  0.06508203  0.24260973  0.24838795     0.14100
C1315       C  0.92832674  0.26376011  0.31127667    -0.15500
C1316       C  0.89230535  0.24723768  0.31167992    -0.30600
H1317       H  0.93163747  0.29410875  0.30116640     0.13600
H1318       H  0.88989354  0.21641489  0.32058645     0.14100
C1319       C  0.38366874  0.81452052  0.31216534    -0.15500
C1320       C  0.40904099  0.84443227  0.30238116    -0.30600
H1321       H  0.39271586  0.79325994  0.33478918     0.13600
H1322       H  0.39919888  0.86585860  0.28023740     0.14100
C1323       C  0.38640471  0.71684956  0.20211231    -0.15500
C1324       C  0.42330633  0.72527178  0.21261615    -0.30600
H1325       H  0.37931608  0.68702780  0.19210060     0.13600
H1326       H  0.43023524  0.75431623  0.22486032     0.14100
C1327       C  0.20626357  0.74518418  0.39367428    -0.15500
C1328       C  0.16800804  0.74141532  0.40649806    -0.30600
H1329       H  0.23036114  0.73250814  0.41118747     0.13600
H1330       H  0.14433945  0.75140725  0.38675562     0.14100
C1331       C  0.29682155  0.86308604  0.41290777    -0.15500
C1332       C  0.27787199  0.86103612  0.44847108    -0.30600
H1333       H  0.32848544  0.86934024  0.41162714     0.13600
H1334       H  0.24672131  0.85278945  0.45026077     0.14100
C1335       C  0.06445928  0.85332024  0.29108510    -0.15500
C1336       C  0.09522489  0.87165577  0.27156174    -0.30600
H1337       H  0.06982172  0.82366167  0.30250056     0.13600
H1338       H  0.08940979  0.90032173  0.25799017     0.14100
C1339       C  0.06649089  0.75260204  0.15922290    -0.15500
C1340       C  0.07003654  0.76266898  0.19815785    -0.30600
H1341       H  0.09266571  0.74523366  0.14095525     0.13600
H1342       H  0.04405738  0.76825855  0.21728881     0.14100
C1343       C  0.17721995  0.77815476  0.10797772    -0.15500
C1344       C  0.16986638  0.73993327  0.09760181    -0.30600
H1345       H  0.17167687  0.80202667  0.08696001     0.13600
H1346       H  0.17300869  0.71741055  0.12063167     0.14100
C1347       C  0.31197047  0.84137794  0.08264978    -0.15500
C1348       C  0.28601335  0.84304987  0.05214982    -0.30600
H1349       H  0.34051158  0.85584031  0.08023950     0.13600
H1350       H  0.25814454  0.82716956  0.05407814     0.14100
C1351       C  0.27101186  0.12610829  0.20168456    -0.15500
C1352       C  0.24169321  0.15191344  0.19012696    -0.30600
H1353       H  0.29211332  0.13616899  0.22390400     0.13600
H1354       H  0.22104155  0.14249202  0.16720533     0.14100
C1355       C  0.26024561  0.97439959  0.18903972    -0.15500
C1356       C  0.28015955  0.93879209  0.18622274    -0.30600
H1357       H  0.23118804  0.97524797  0.20383672     0.13600
H1358       H  0.31080076  0.93835305  0.17554561     0.14100
C1359       C  0.16071349  0.14999917  0.31468223    -0.15500
C1360       C  0.17293865  0.11407454  0.30297386    -0.30600
H1361       H  0.13152488  0.15443127  0.32875806     0.13600
H1362       H  0.20077445  0.10985785  0.28623387     0.14100
C1363       C  0.19657564  0.96872854  0.29415802    -0.15500
C1364       C  0.15678870  0.97234221  0.29286931    -0.30600
H1365       H  0.21555694  0.99454319  0.29494588     0.13600
H1366       H  0.13829381  0.94619097  0.29323647     0.14100
C1367       C  0.28980192  0.43557168  0.76758318    -0.15500
C1368       C  0.29484292  0.44635913  0.80655734    -0.30600
H1369       H  0.29585046  0.45631001  0.74354381     0.13600
H1370       H  0.29125794  0.42400088  0.82966099     0.14100
C1371       C  0.16599696  0.46318451  0.68929802    -0.15500
C1372       C  0.17255774  0.49989924  0.70341660    -0.30600
H1373       H  0.15594248  0.45946167  0.65860149     0.13600
H1374       H  0.18463272  0.50414193  0.73327903     0.14100
C1375       C  0.36993620  0.27608967  0.67157577    -0.15500
C1376       C  0.39903322  0.25722331  0.69309597    -0.30600
H1377       H  0.37737178  0.28776555  0.64214672     0.13600
H1378       H  0.39190656  0.24758375  0.72332812     0.14100
C1379       C  0.39378413  0.34201835  0.78957067    -0.15500
C1380       C  0.39781236  0.38040705  0.79916778    -0.30600
H1381       H  0.41941859  0.32238229  0.78471649     0.13600
H1382       H  0.37172306  0.39911871  0.80545235     0.14100
C1383       C  0.25365351  0.15563991  0.78935344    -0.15500
C1384       C  0.29178597  0.14418611  0.79571593    -0.30600
H1385       H  0.22924122  0.13645076  0.79755421     0.13600
H1386       H  0.31538988  0.16528445  0.79043482     0.14100
C1387       C  0.16674877  0.13854374  0.67615462    -0.15500
C1388       C  0.18466545  0.10334687  0.68387003    -0.30600
H1389       H  0.13524516  0.14001726  0.66917534     0.13600
H1390       H  0.21539955  0.10221798  0.69381043     0.14100
C1391       C  0.05223218  0.25254237  0.69550570    -0.15500
C1392       C  0.08097081  0.23909710  0.72082058    -0.30600
H1393       H  0.05779652  0.27912880  0.67823729     0.13600
H1394       H  0.07492538  0.21306087  0.73876935     0.14100
C1395       C  0.04026518  0.34262417  0.81039174    -0.15500
C1396       C  0.07739514  0.35218962  0.81861229    -0.30600
H1397       H  0.03250391  0.33109222  0.78092481     0.13600
H1398       H  0.08492050  0.36163280  0.84892806     0.14100
C1399       C  0.26875317  0.20654012  0.07007255    -0.15500
C1400       C  0.28219478  0.24302675  0.07697735    -0.30600
H1401       H  0.26095538  0.18706831  0.09475325     0.13600
H1402       H  0.29142412  0.26153503  0.05194924     0.14100
C1403       C  0.27702957  0.23583630  0.92711768    -0.15500
C1404       C  0.28922324  0.22625518  0.88993780    -0.30600
H1405       H  0.26227198  0.26419744  0.93336037     0.13600
H1406       H  0.30118682  0.19663599  0.88371155     0.14100
C1407       C  0.17500942  0.31924318  0.09363773    -0.15500
C1408       C  0.19217169  0.34051473  0.06373681    -0.30600
H1409       H  0.14576574  0.30691587  0.08867542     0.13600
H1410       H  0.22216373  0.35133194  0.06785399     0.14100
C1411       C  0.18475666  0.34848575  0.91087975    -0.15500
C1412       C  0.17465621  0.31736890  0.88699163    -0.30600
H1413       H  0.20373233  0.37113849  0.89825282     0.13600
H1414       H  0.15479765  0.29516868  0.89900889     0.14100
C1415       C  0.56044471  0.34768999  0.19462705    -0.15500
C1416       C  0.58011989  0.35259798  0.22915288    -0.30600
H1417       H  0.57438182  0.33111707  0.16991549     0.13600
H1418       H  0.56737103  0.37142974  0.25282854     0.14100
C1419       C  0.40064456  0.33100997  0.18997236    -0.15500
C1420       C  0.41146202  0.36752562  0.20071460    -0.30600
H1421       H  0.42339817  0.30893960  0.18180586     0.13600
H1422       H  0.38857862  0.38978883  0.20781925     0.14100
C1423       C  0.52692867  0.23908503  0.29332980    -0.15500
C1424       C  0.56230772  0.23727618  0.31172034    -0.30600
H1425       H  0.52490449  0.24895938  0.26237777     0.13600
H1426       H  0.56351446  0.22941235  0.34334059     0.14100
C1427       C  0.37828367  0.23241799  0.30799898    -0.15500
C1428       C  0.36733223  0.27026467  0.30048033    -0.30600
H1429       H  0.35630755  0.20925489  0.30508168     0.13600
H1430       H  0.38753381  0.29442237  0.30623173     0.14100
C1431       C  0.29261123  0.44133411  0.21262795    -0.15500
C1432       C  0.27259202  0.47633517  0.20690490    -0.30600
H1433       H  0.32490176  0.44074533  0.20997861     0.13600
H1434       H  0.24063966  0.47717708  0.21252763     0.14100
C1435       C  0.27176910  0.62765178  0.20160637    -0.15500
C1436       C  0.28586899  0.65324489  0.22961230    -0.30600
H1437       H  0.24747421  0.63748232  0.18262612     0.13600
H1438       H  0.31004893  0.64333609  0.24870818     0.14100
C1439       C  0.12160806  0.48351159  0.25450851    -0.15500
C1440       C  0.15453437  0.47013719  0.27227959    -0.30600
H1441       H  0.10673419  0.46674061  0.23116382     0.13600
H1442       H  0.16728471  0.48529250  0.29795904     0.14100
C1443       C  0.14794787  0.64802218  0.29824888    -0.15500
C1444       C  0.13263514  0.62413077  0.27035723    -0.30600
H1445       H  0.14434884  0.64244103  0.33021406     0.13600
H1446       H  0.13616498  0.63034023  0.23844997     0.14100
C1447       C  0.20738089  0.36527498  0.38643273    -0.15500
C1448       C  0.17489394  0.35681968  0.40963477    -0.30600
H1449       H  0.23083859  0.38314931  0.39902660     0.13600
H1450       H  0.15123188  0.33987648  0.39608151     0.14100
C1451       C  0.18728709  0.35046201  0.56249014    -0.15500
C1452       C  0.19036903  0.36828039  0.59920691    -0.30600
H1453       H  0.19680950  0.31965557  0.55944346     0.13600
H1454       H  0.18317515  0.39967579  0.60220097     0.14100
C1455       C  0.31621691  0.24779758  0.41431921    -0.15500
C1456       C  0.27698700  0.25463462  0.41108067    -0.30600
H1457       H  0.33431612  0.24136211  0.38763078     0.13600
H1458       H  0.25836264  0.25969392  0.43768229     0.14100
C1459       C  0.30961381  0.25759010  0.56249140    -0.15500
C1460       C  0.26994737  0.25386311  0.56519679    -0.30600
H1461       H  0.32709986  0.25992375  0.58970260     0.13600
H1462       H  0.25204547  0.25050362  0.53837929     0.14100
loop_ 
_geom_bond_atom_site_label_1 
_geom_bond_atom_site_label_2 
_geom_bond_distance 
_geom_bond_site_symmetry_2 
_ccdc_geom_bond_type 
C1            C2   1.393       .  A
C1            C6   1.397       .  A
C1         C1459   1.456       .  S
C2            C3   1.395       .  A
C2            H7   1.085       .  S
C3            C4   1.396       .  A
C3         C1007   1.460       .  S
C4            C5   1.395       .  A
C4            H8   1.085       .  S
C5            C6   1.403       .  A
C5         C1455   1.461       .  S
C6            H9   1.084       .  S
C10          C11   1.419       .  A
C10          C15   1.407       .  A
C10        C1448   1.508       .  S
C11          C12   1.426       .  A
C11          H16   1.083       .  S
C12          C13   1.417       .  A
C12        C1451   1.516       .  S
C13          C14   1.414       .  A
C13          H17   1.083       .  S
C14          C15   1.411       .  A
C14         C905   1.501       .  S
C15          H18   1.084       .  S
C19          C20   1.385       .  A
C19          C24   1.394       .  A
C19        C1439   1.433       .  S
C20          C21   1.385       .  A
C20          H25   1.086       .  S
C21          C22   1.395       .  A
C21        C1444   1.444       .  S
C22          C23   1.394       .  A
C22          H26   1.084       .  S
C23          C24   1.393       .  A
C23         C928   1.449       .  S
C24          H27   1.084       .  S
C28          C29   1.424       .  A
C28          C33   1.416       .  A
C28        C1432   1.520       .  S
C29          C30   1.420       .  A
C29          H34   1.083       .  S
C30          C31   1.408       .  A
C30        C1435   1.508       .  S
C31          C32   1.411       .  A
C31          H35   1.084       .  S
C32          C33   1.418       .  A
C32         C962   1.503       .  S
C33          H36   1.083       .  S
C37          C38   1.404       .  A
C37          C42   1.402       .  A
C37        C1423   1.479       .  S
C38          C39   1.394       .  A
C38          H43   1.083       .  S
C39          C40   1.405       .  A
C39        C1030   1.479       .  S
C40          C41   1.408       .  A
C40          H44   1.084       .  S
C41          C42   1.407       .  A
C41        C1427   1.480       .  S
C42          H45   1.084       .  S
C46          C47   1.409       .  A
C46          C51   1.390       .  A
C46        C1420   1.473       .  S
C47          C48   1.409       .  A
C47          H52   1.084       .  S
C48          C49   1.402       .  A
C48        C1415   1.470       .  S
C49          C50   1.398       .  A
C49          H53   1.084       .  S
C50          C51   1.398       .  A
C50         C950   1.466       .  S
C51          H54   1.085       .  S
C55          C56   1.420       .  A
C55          C60   1.409       .  A
C55        C1411   1.508       .  S
C56          C57   1.422   1_556  A
C56          H61   1.083       .  S
C57          C58   1.413       .  A
C57        C1408   1.507       .  S
C58          C59   1.412   1_554  A
C58          H62   1.084       .  S
C59          C60   1.413       .  A
C59         C618   1.502       .  S
C60          H63   1.084       .  S
C64          C65   1.406       .  A
C64          C69   1.397       .  A
C64        C1403   1.474       .  S
C65          C66   1.390       .  A
C65          H70   1.082       .  S
C66          C67   1.393   1_556  A
C66         C651   1.458       .  S
C67          C68   1.392       .  A
C67          H71   1.085       .  S
C68          C69   1.405   1_554  A
C68        C1399   1.457       .  S
C69          H72   1.084       .  S
O73         C100   1.272       .  A
O73         Mn99   2.094       .  S
C74        C1460   1.460       .  S
C74         O107   1.267       .  A
C74         O104   1.269       .  A
O75         Mn82   2.161       .  S
O75         Mn93   2.147       .  S
O75         Mn97   2.153       .  S
O75         Mn99   2.133       .  S
O76          C86   1.269       .  A
O76        Mn110   2.081       .  S
O77         C100   1.256       .  A
O77         Mn93   2.018       .  S
O78         C105   1.263       .  A
O78         Mn97   2.142       .  S
O79        Mn110   1.967       .  S
O79         Mn99   1.962       .  S
O79          C95   1.224       .  S
C80        C1383   1.481       .  S
C80          O83   1.256       .  A
C80         O106   1.221       .  S
O81        Mn101   2.137       .  S
O81         Mn82   2.181       .  S
O81        Mn115   2.134       .  S
O81         Mn97   2.165       .  S
Mn82        O111   2.157       .  S
Mn82         O87   2.145       .  S
Mn82        O114   2.142       .  S
Mn82         O88   2.159       .  S
O83         Mn97   2.113       .  S
O84          C86   1.267       .  A
O84         Mn91   2.080       .  S
C85        C1375   1.516       .  S
C85         O111   1.264       .  A
C85          O98   1.221       .  S
C86        C1387   1.465       .  S
O87         C112   1.261       .  A
O88         Mn91   2.136       .  S
O88        Mn110   2.152       .  S
O88         Mn97   2.165       .  S
O89         Mn93   1.931       .  S
O89        Mn115   1.950       .  S
O89         C112   1.215       .  S
C90        C1404   1.453       .  S
C90         O116   1.259       .  A
C90          O92   1.272       .  A
Mn91        O104   2.064       .  S
Mn91        O106   1.953       .  S
Mn91         O98   1.977       .  S
O92        Mn115   2.100       .  S
Mn93        O109   2.110       .  S
Mn93        O103   1.981       .  S
O94          C96   1.267       .  A
O94         Mn99   2.069       .  S
C95        C1392   1.513       .  S
C95         O113   1.260       .  A
C96        C1371   1.468       .  S
C96         O109   1.273       .  A
Mn97        O113   2.136       .  S
O98        Mn101   1.938       .  S
Mn99        O117   1.992       .  S
C100       C1396   1.443       .  S
Mn101       O108   2.053       .  S
Mn101       O116   2.036       .  S
Mn101       O106   1.942       .  S
C102       C1379   1.442       .  S
C102        O108   1.260       .  A
C102        O118   1.262       .  A
O103       Mn115   1.952       .  S
O103        C105   1.224       .  S
C105       C1412   1.512       .  S
O107       Mn110   2.082       .  S
Mn110       O117   1.977       .  S
C112       C1367   1.491       .  S
O114        C119   1.267       .  A
Mn115       O118   2.047       .  S
O117        C119   1.230       .  S
C119       C1452   1.506       .  S
C120        C121   1.394       .  A
C120        C125   1.395       .  A
C120       C1364   1.448   1_545  S
C121        C122   1.387       .  A
C121        H126   1.085       .  S
C122        C123   1.405       .  A
C122       C1360   1.460       .  S
C123        C124   1.393       .  A
C123        H127   1.082       .  S
C124        C125   1.395       .  A
C124        C573   1.461       .  S
C125        H128   1.085   1_545  S
C129        C130   1.415       .  A
C129        C134   1.429       .  A
C129       C1355   1.526   1_545  S
C130        C131   1.408       .  A
C130        H135   1.080   1_545  S
C131        C132   1.410       .  A
C131        C663   1.498       .  S
C132        C133   1.410       .  A
C132        H136   1.084       .  S
C133        C134   1.425       .  A
C133       C1351   1.512       .  S
C134        H137   1.083       .  S
O138        C165   1.268       .  A
O138       Mn164   2.094       .  S
C139       C1443   1.442       .  S
C139        O172   1.265       .  A
C139        O169   1.262       .  A
O140       Mn147   2.159       .  S
O140       Mn158   2.126       .  S
O140       Mn162   2.182       .  S
O140       Mn164   2.143       .  S
O141        C151   1.261       .  A
O141       Mn175   2.039       .  S
O142        C165   1.266       .  A
O142       Mn158   2.070       .  S
O143        C170   1.265       .  A
O143       Mn162   2.154       .  S
O144       Mn175   1.925       .  S
O144       Mn164   1.917       .  S
O144        C160   1.214       .  S
C145       C1336   1.525       .  S
C145        O148   1.267       .  A
C145        O171   1.227       .  S
O146       Mn166   2.137       .  S
O146       Mn147   2.153       .  S
O146       Mn180   2.149       .  S
O146       Mn162   2.152       .  S
Mn147       O176   2.126       .  S
Mn147       O152   2.165       .  S
Mn147       O179   2.130       .  S
Mn147       O153   2.172       .  S
O148       Mn162   2.158       .  S
O149        C151   1.264       .  A
O149       Mn156   2.067       .  S
C150       C1327   1.497       .  S
C150        O176   1.260       .  A
C150        O163   1.223       .  S
C151       C1340   1.446       .  S
O152        C177   1.265       .  A
O153       Mn156   2.154       .  S
O153       Mn175   2.123       .  S
O153       Mn162   2.179       .  S
O154       Mn158   1.954       .  S
O154       Mn180   1.951       .  S
O154        C177   1.220       .  S
C155       C1363   1.444       .  S
C155        O181   1.268       .  A
C155        O157   1.264       .  A
Mn156       O169   2.062       .  S
Mn156       O171   1.944       .  S
Mn156       O163   1.956       .  S
O157       Mn180   2.060       .  S
Mn158       O174   2.086       .  S
Mn158       O168   1.983       .  S
O159        C161   1.258       .  A
O159       Mn164   2.026       .  S
C160       C1343   1.496       .  S
C160        O178   1.260       .  A
C161       C1323   1.445       .  S
C161        O174   1.271       .  A
Mn162       O178   2.152       .  S
O163       Mn166   1.970       .  S
Mn164       O182   1.983       .  S
C165       C1347   1.462       .  S
Mn166       O173   2.082       .  S
Mn166       O181   2.054       .  S
Mn166       O171   1.981       .  S
C167       C1331   1.455       .  S
C167        O173   1.269       .  A
C167        O183   1.264       .  A
O168       Mn180   1.967       .  S
O168        C170   1.226       .  S
C170       C1356   1.503       .  S
O172       Mn175   2.040       .  S
Mn175       O182   1.962       .  S
C177       C1319   1.523       .  S
O179        C184   1.262       .  A
Mn180       O183   2.059       .  S
O182        C184   1.229       .  S
C184       C1436   1.510       .  S
C185        C186   1.415       .  A
C185        C190   1.400   1_655  A
C185       C1315   1.489       .  S
C186        C187   1.407       .  A
C186        H191   1.082       .  S
C187        C188   1.410   1_655  A
C187        C596   1.498       .  S
C188        C189   1.412       .  A
C188        H192   1.084       .  S
C189        C190   1.404       .  A
C189       C1311   1.484       .  S
C190        H193   1.084       .  S
C194        C195   1.403       .  A
C194        C199   1.412       .  A
C194       C1308   1.471       .  S
C195        C196   1.396       .  A
C195        H200   1.084       .  S
C196        C197   1.388       .  A
C196        C606   1.466       .  S
C197        C198   1.400       .  A
C197        H201   1.082   1_655  S
C198        C199   1.409       .  A
C198       C1303   1.484   1_655  S
C199        H202   1.084       .  S
O203        C230   1.263       .  A
O203       Mn229   2.054       .  S
C204       C1424   1.466       .  S
C204        O237   1.265       .  A
C204        O234   1.271       .  A
O205       Mn212   2.168       .  S
O205       Mn223   2.118       .  S
O205       Mn227   2.170       .  S
O205       Mn229   2.114       .  S
O206        C216   1.265       .  A
O206       Mn240   2.072       .  S
O207        C230   1.278       .  A
O207       Mn223   2.130       .  S
O208        C235   1.250       .  A
O208       Mn227   2.117       .  S
O209       Mn240   1.948       .  S
O209       Mn229   1.959       .  S
O209        C225   1.221       .  S
C210       C1299   1.479       .  S
C210        O213   1.251       .  A
C210        O236   1.221       .  S
O211       Mn231   2.126       .  S
O211       Mn212   2.156       .  S
O211       Mn245   2.120       .  S
O211       Mn227   2.152       .  S
Mn212       O241   2.093       .  S
Mn212       O217   2.100       .  S
Mn212       O244   2.116       .  S
Mn212       O218   2.174       .  S
O213       Mn227   2.098       .  S
O214        C216   1.283       .  A
O214       Mn221   2.143       .  S
C215       C1416   1.477       .  S
C215        O241   1.251       .  A
C215        O228   1.222       .  S
C216       C1287   1.487       .  S
O217        C242   1.251       .  A
O218       Mn221   2.123       .  S
O218       Mn240   2.118       .  S
O218       Mn227   2.164       .  S
O219       Mn223   1.964       .  S
O219       Mn245   1.963       .  S
O219        C242   1.220       .  S
C220       C1295   1.483       .  S
C220        O246   1.267       .  A
C220        O222   1.278       .  A
Mn221       O234   2.098       .  S
Mn221       O236   1.972       .  S
Mn221       O228   1.974       .  S
O222       Mn245   2.119       .  S
Mn223       O239   2.093       .  S
Mn223       O233   1.956       .  S
O224        C226   1.270       .  A
O224       Mn229   2.092       .  S
C225       C1291   1.460       .  S
C225        O243   1.247       .  A
C226       C1279   1.475       .  S
C226        O239   1.271       .  A
Mn227       O243   2.075       .  S
O228       Mn231   1.963       .  S
Mn229       O247   1.929       .  S
C230       C1316   1.473       .  S
Mn231       O238   2.104       .  S
Mn231       O246   2.084       .  S
Mn231       O236   1.969       .  S
C232       C1271   1.480       .  S
C232        O238   1.276       .  A
C232        O248   1.272       .  A
O233       Mn245   1.966       .  S
O233        C235   1.214       .  S
C235       C1307   1.479       .  S
O237       Mn240   2.068       .  S
Mn240       O247   1.933       .  S
C242       C1275   1.470       .  S
O244        C249   1.248       .  A
Mn245       O248   2.102       .  S
O247        C249   1.213       .  S
C249       C1283   1.474       .  S
C250        C251   1.389       .  A
C250        C255   1.413   1_556  A
C250       C1267   1.477       .  S
C251        C252   1.395   1_556  A
C251        H256   1.085       .  S
C252        C253   1.396       .  A
C252        C652   1.461       .  S
C253        C254   1.400       .  A
C253        H257   1.085       .  S
C254        C255   1.411       .  A
C254       C1300   1.473       .  S
C255        H258   1.083       .  S
C259        C260   1.416   1_554  A
C259        C264   1.394       .  A
C259       C1296   1.481       .  S
C260        C261   1.416       .  A
C260        H265   1.083       .  S
C261        C262   1.411       .  A
C261       C1263   1.492       .  S
C262        C263   1.406       .  A
C262        H266   1.084       .  S
C263        C264   1.395   1_556  A
C263        C629   1.479       .  S
C264        H267   1.085       .  S
C268        C269   1.411       .  A
C268        C273   1.423       .  A
C268       C1259   1.512       .  S
C269        C270   1.415       .  A
C269        H274   1.084       .  S
C270        C271   1.414   1_655  A
C270        C597   1.502       .  S
C271        C272   1.410       .  A
C271        H275   1.084       .  S
C272        C273   1.421   1_455  A
C272       C1391   1.511       .  S
C273        H276   1.083       .  S
C277        C278   1.405       .  A
C277        C282   1.384   1_455  A
C277       C1395   1.464       .  S
C278        C279   1.389   1_455  A
C278        H283   1.082       .  S
C279        C280   1.398       .  A
C279        C641   1.462       .  S
C280        C281   1.399       .  A
C280        H284   1.085       .  S
C281        C282   1.399       .  A
C281       C1255   1.456       .  S
C282        H285   1.085       .  S
O286        C313   1.264       .  A
O286       Mn312   2.051       .  S
C287       C1231   1.440       .  S
C287        O320   1.255       .  A
C287        O317   1.274       .  A
O288       Mn295   2.180       .  S
O288       Mn306   2.139       .  S
O288       Mn310   2.178       .  S
O288       Mn312   2.133       .  S
O289        C299   1.262       .  A
O289       Mn323   2.056       .  S
O290        C313   1.262       .  A
O290       Mn306   2.059       .  S
O291        C318   1.263       .  A
O291       Mn310   2.145       .  S
O292       Mn323   1.936       .  S
O292       Mn312   1.955       .  S
O292        C308   1.223       .  S
C293       C1251   1.516       .  S
C293        O296   1.265       .  A
C293        O319   1.223       .  S
O294       Mn314   2.145       .  S
O294       Mn295   2.154       .  S
O294       Mn328   2.141       .  S
O294       Mn310   2.159       .  S
Mn295       O324   2.139       .  S
Mn295       O300   2.119       .  S
Mn295       O327   2.138       .  S
Mn295       O301   2.147       .  S
O296       Mn310   2.158       .  S
O297        C299   1.280       .  A
O297       Mn304   2.128       .  S
C298       C1235   1.520       .  S
C298        O324   1.265       .  A
C298        O311   1.231       .  S
C299       C1268   1.471       .  S
O300        C325   1.254       .  A
O301       Mn304   2.144       .  S
O301       Mn323   2.154       .  S
O301       Mn310   2.157       .  S
O302       Mn306   1.934       .  S
O302       Mn328   1.924       .  S
O302        C325   1.218       .  S
C303       C1248   1.444       .  S
C303        O329   1.274       .  A
C303        O305   1.254       .  A
Mn304       O317   2.099       .  S
Mn304       O319   1.988       .  S
Mn304       O311   2.003       .  S
O305       Mn328   2.005       .  S
Mn306       O322   2.025       .  S
Mn306       O316   1.939       .  S
O307        C309   1.268       .  A
O307       Mn312   2.081       .  S
C308       C1264   1.495       .  S
C308        O326   1.261       .  A
C309       C1223   1.444       .  S
C309        O322   1.254       .  A
Mn310       O326   2.132       .  S
O311       Mn314   1.996       .  S
Mn312       O330   1.957       .  S
C313       C1256   1.445       .  S
Mn314       O321   2.094       .  S
Mn314       O329   2.113       .  S
Mn314       O319   1.968       .  S
C315       C1239   1.467       .  S
C315        O321   1.272       .  A
C315        O331   1.267       .  A
O316       Mn328   1.979       .  S
O316        C318   1.225       .  S
C318       C1260   1.511       .  S
O320       Mn323   2.009       .  S
Mn323       O330   1.969       .  S
C325       C1243   1.481       .  S
O327        C332   1.262       .  A
Mn328       O331   2.076       .  S
O330        C332   1.227       .  S
C332       C1227   1.520       .  S
C333        C334   1.411   1_556  A
C333        C338   1.407       .  A
C333       C1219   1.494       .  S
C334        C335   1.413       .  A
C334        H339   1.083       .  S
C335        C336   1.416       .  A
C335       C1344   1.497       .  S
C336        C337   1.409       .  A
C336        H340   1.083       .  S
C337        C338   1.398   1_554  A
C337        C617   1.493       .  S
C338        H341   1.081       .  S
C342        C343   1.402   1_554  A
C342        C347   1.406       .  A
C342       C1348   1.487       .  S
C343        C344   1.406       .  A
C343        H348   1.084       .  S
C344        C345   1.399       .  A
C344       C1216   1.460       .  S
C345        C346   1.394       .  A
C345        H349   1.085       .  S
C346        C347   1.398   1_556  A
C346        C686   1.471       .  S
C347        H350   1.081       .  S
C351        C352   1.408   1_565  A
C351        C356   1.405       .  A
C351       C1211   1.464       .  S
C352        C353   1.404       .  A
C352        H357   1.084       .  S
C353        C354   1.400       .  A
C353       C1388   1.485       .  S
C354        C355   1.395       .  A
C354        H358   1.080       .  S
C355        C356   1.398   1_545  A
C355        C572   1.472       .  S
C356        H359   1.084       .  S
C360        C361   1.404       .  A
C360        C365   1.406       .  A
C360       C1207   1.483   1_545  S
C361        C362   1.407       .  A
C361        H366   1.084       .  S
C362        C363   1.409       .  A
C362       C1384   1.483       .  S
C363        C364   1.406       .  A
C363        H367   1.084       .  S
C364        C365   1.396       .  A
C364        C674   1.483       .  S
C365        H368   1.082       .  S
O369        C396   1.276       .  A
O369       Mn395   2.124       .  S
C370       C1220   1.478       .  S
C370        O403   1.274       .  A
C370        O400   1.273       .  A
O371       Mn378   2.170       .  S
O371       Mn389   2.105       .  S
O371       Mn393   2.172       .  S
O371       Mn395   2.115       .  S
O372        C382   1.267       .  A
O372       Mn406   2.072       .  S
O373        C396   1.266       .  A
O373       Mn389   2.065       .  S
O374        C401   1.244       .  A
O374       Mn393   2.076       .  S
O375       Mn406   1.964       .  S
O375       Mn395   1.951       .  S
O375        C391   1.217       .  S
C376       C1176   1.468       .  S
C376        O379   1.247       .  A
C376        O402   1.214       .  S
O377       Mn397   2.112       .  S
O377       Mn378   2.168       .  S
O377       Mn411   2.106       .  S
O377       Mn393   2.170       .  S
Mn378       O407   2.083       .  S
Mn378       O383   2.115       .  S
Mn378       O410   2.101       .  S
Mn378       O384   2.163       .  S
O379       Mn393   2.107       .  S
O380        C382   1.275       .  A
O380       Mn387   2.117       .  S
C381       C1199   1.460       .  S
C381        O407   1.248       .  A
C381        O394   1.219       .  S
C382       C1179   1.474       .  S
O383        C408   1.249       .  A
O384       Mn387   2.116       .  S
O384       Mn406   2.114       .  S
O384       Mn393   2.154       .  S
O385       Mn389   1.936       .  S
O385       Mn411   1.939       .  S
O385        C408   1.212       .  S
C386       C1195   1.482       .  S
C386        O412   1.279       .  A
C386        O388   1.264       .  A
Mn387       O400   2.092       .  S
Mn387       O402   1.955       .  S
Mn387       O394   1.965       .  S
O388       Mn411   2.069       .  S
Mn389       O405   2.089       .  S
Mn389       O399   1.945       .  S
O390        C392   1.268       .  A
O390       Mn395   2.080       .  S
C391       C1183   1.465       .  S
C391        O409   1.246       .  A
C392       C1208   1.468       .  S
C392        O405   1.270       .  A
Mn393       O409   2.088       .  S
O394       Mn397   1.964       .  S
Mn395       O413   1.956       .  S
C396       C1187   1.475       .  S
Mn397       O404   2.114       .  S
Mn397       O412   2.132       .  S
Mn397       O402   1.959       .  S
C398       C1203   1.475       .  S
C398        O404   1.274       .  A
C398        O414   1.269       .  A
O399       Mn411   1.937       .  S
O399        C401   1.217       .  S
C401       C1191   1.449       .  S
O403       Mn406   2.106       .  S
Mn406       O413   1.943       .  S
C408       C1212   1.476       .  S
O410        C415   1.249       .  A
Mn411       O414   2.075       .  S
O413        C415   1.216       .  S
C415       C1215   1.466       .  S
C416        C417   1.401       .  A
C416        C421   1.383       .  A
C416       C1171   1.459       .  S
C417        C418   1.388       .  A
C417        H422   1.083       .  S
C418        C419   1.397   1_655  A
C418        C607   1.460       .  S
C419        C420   1.402       .  A
C419        H423   1.083       .  S
C420        C421   1.398   1_455  A
C420       C1339   1.455       .  S
C421        H424   1.085       .  S
C425        C426   1.430       .  A
C425        C430   1.415       .  A
C425       C1167   1.525       .  S
C426        C427   1.430   1_655  A
C426        H431   1.083       .  S
C427        C428   1.413       .  A
C427       C1335   1.525       .  S
C428        C429   1.418   1_455  A
C428        H432   1.084       .  S
C429        C430   1.417       .  A
C429        C561   1.510       .  S
C430        H433   1.084       .  S
C434        C435   1.399       .  A
C434        C439   1.405       .  A
C434       C1163   1.476   1_545  S
C435        C436   1.403       .  A
C435        H440   1.084       .  S
C436        C437   1.394       .  A
C436       C1292   1.455       .  S
C437        C438   1.393       .  A
C437        H441   1.085       .  S
C438        C439   1.395       .  A
C438        C584   1.463       .  S
C439        H442   1.082       .  S
C443        C444   1.421   1_565  A
C443        C448   1.415       .  A
C443       C1160   1.503       .  S
C444        C445   1.420       .  A
C444        H449   1.083       .  S
C445        C446   1.392       .  A
C445       C1288   1.488       .  S
C446        C447   1.396       .  A
C446        H450   1.085       .  S
C447        C448   1.409   1_545  A
C447        C662   1.484       .  S
C448        H451   1.084       .  S
O452        C479   1.261       .  A
O452       Mn478   2.038       .  S
C453       C1172   1.441       .  S
C453        O486   1.254       .  A
C453        O483   1.271       .  A
O454       Mn461   2.176       .  S
O454       Mn472   2.143       .  S
O454       Mn476   2.183       .  S
O454       Mn478   2.139       .  S
O455        C465   1.266       .  A
O455       Mn489   2.078       .  S
O456        C479   1.265       .  A
O456       Mn472   2.078       .  S
O457        C484   1.265       .  A
O457       Mn476   2.151       .  S
O458       Mn489   1.923       .  S
O458       Mn478   1.930       .  S
O458        C474   1.217       .  S
C459       C1147   1.516       .  S
C459        O462   1.267       .  A
C459        O485   1.226       .  S
O460       Mn480   2.140       .  S
O460       Mn461   2.144       .  S
O460       Mn494   2.144       .  S
O460       Mn476   2.161       .  S
Mn461       O490   2.167       .  S
Mn461       O466   2.143       .  S
Mn461       O493   2.114       .  S
Mn461       O467   2.168       .  S
O462       Mn476   2.175       .  S
O463        C465   1.267       .  A
O463       Mn470   2.073       .  S
C464       C1168   1.526       .  S
C464        O490   1.266       .  A
C464        O477   1.222       .  S
C465       C1127   1.459       .  S
O466        C491   1.262       .  A
O467       Mn470   2.131       .  S
O467       Mn489   2.147       .  S
O467       Mn476   2.174       .  S
O468       Mn472   1.954       .  S
O468       Mn494   1.948       .  S
O468        C491   1.222       .  S
C469       C1143   1.424       .  S
C469        O495   1.264       .  A
C469        O471   1.262       .  A
Mn470       O483   2.089       .  S
Mn470       O485   1.977       .  S
Mn470       O477   1.958       .  S
O471       Mn494   2.047       .  S
Mn472       O488   2.058       .  S
Mn472       O482   1.958       .  S
O473        C475   1.260       .  A
O473       Mn478   2.049       .  S
C474       C1131   1.504       .  S
C474        O492   1.265       .  A
C475       C1151   1.440       .  S
C475        O488   1.265       .  A
Mn476       O492   2.161       .  S
O477       Mn480   1.959       .  S
Mn478       O496   1.960       .  S
C479       C1135   1.452       .  S
Mn480       O487   2.063       .  S
Mn480       O495   2.045       .  S
Mn480       O485   1.966       .  S
C481       C1164   1.459       .  S
C481        O487   1.266       .  A
C481        O497   1.272       .  A
O482       Mn494   1.988       .  S
O482        C484   1.226       .  S
C484       C1139   1.514       .  S
O486       Mn489   2.013       .  S
Mn489       O496   1.971       .  S
C491       C1159   1.506       .  S
O493        C498   1.258       .  A
Mn494       O497   2.094       .  S
O496        C498   1.230       .  S
C498       C1155   1.503       .  S
C499        C500   1.401       .  A
C499        C504   1.393       .  A
C499       C1152   1.451       .  S
C500        C501   1.389   1_554  A
C500        H505   1.085       .  S
C501        C502   1.406       .  A
C501       C1123   1.468       .  S
C502        C503   1.388   1_556  A
C502        H506   1.082       .  S
C503        C504   1.395       .  A
C503        C687   1.458       .  S
C504        H507   1.085       .  S
C508        C509   1.420   1_556  A
C508        C513   1.411       .  A
C508       C1119   1.499       .  S
C509        C510   1.419       .  A
C509        H514   1.083       .  S
C510        C511   1.406       .  A
C510       C1156   1.501       .  S
C511        C512   1.406       .  A
C511        H515   1.084       .  S
C512        C513   1.409   1_554  A
C512        C628   1.495       .  S
C513        H516   1.084       .  S
C517        C518   1.383       .  A
C517        C522   1.407       .  A
C517       C1247   1.465       .  S
C518        C519   1.400   1_545  A
C518        H523   1.085       .  S
C519        C520   1.396   1_565  A
C519       C1115   1.456       .  S
C520        C521   1.398       .  A
C520        H524   1.084   1_545  S
C521        C522   1.393       .  A
C521        C583   1.463       .  S
C522        H525   1.084       .  S
C526        C527   1.424       .  A
C526        C531   1.414       .  A
C526       C1252   1.518       .  S
C527        C528   1.424       .  A
C527        H532   1.083       .  S
C528        C529   1.412       .  A
C528       C1111   1.516   1_545  S
C529        C530   1.416       .  A
C529        H533   1.084   1_545  S
C530        C531   1.418       .  A
C530        C673   1.507       .  S
C531        H534   1.083       .  S
C535        C536   1.407       .  A
C535        C540   1.408       .  A
C535       C1204   1.492   1_655  S
C536        C537   1.397       .  A
C536        H541   1.082   1_655  S
C537        C538   1.410       .  A
C537        C562   1.492       .  S
C538        C539   1.416       .  A
C538        H542   1.084       .  S
C539        C540   1.412       .  A
C539       C1108   1.492       .  S
C540        H543   1.084       .  S
C544        C545   1.399   1_655  A
C544        C549   1.403       .  A
C544       C1103   1.479       .  S
C545        C546   1.404       .  A
C545        H550   1.084       .  S
C546        C547   1.396       .  A
C546       C1200   1.455       .  S
C547        C548   1.391   1_455  A
C547        H551   1.085       .  S
C548        C549   1.396       .  A
C548        C642   1.463       .  S
C549        H552   1.081       .  S
N553        N554   1.328       .  A
N553        N559   1.314       .  A
N553       Mn582   2.234       .  S
N554        C561   1.361       .  A
N555        N557   1.313       .  A
N555        N556   1.321       .  A
N555       Mn571   2.213   1_655  S
N556        C562   1.358       .  A
N557        N558   1.325       .  A
N557       Mn582   2.205       .  S
N558        C562   1.354       .  A
N559        N560   1.326   1_655  A
N559       Mn571   2.230   1_655  S
N560        C561   1.358   1_455  A
N563        N569   1.317       .  A
N563        N564   1.311       .  A
N563       Mn593   2.186       .  S
N564        C572   1.349       .  A
N565        N566   1.316       .  A
N565        N567   1.317       .  A
N565       Mn571   2.180   1_545  S
N566        C573   1.348       .  A
N567        N568   1.317       .  A
N567       Mn593   2.191       .  S
N568        C573   1.351       .  A
N569        N570   1.324   1_545  A
N569       Mn571   2.206   1_545  S
N570        C572   1.355   1_565  A
Mn571      Cl595   2.553   1_465  S
N574        N575   1.316       .  A
N574        N580   1.318       .  A
N574       Mn582   2.187   1_545  S
N575        C583   1.347       .  A
N576        N578   1.316       .  A
N576        N577   1.318       .  A
N576       Mn594   2.193       .  S
N577        C584   1.351       .  A
N578        N579   1.315       .  A
N578       Mn582   2.181   1_545  S
N579        C584   1.349       .  A
N580        N581   1.320       .  A
N580       Mn594   2.198       .  S
N581        C583   1.352       .  A
Mn582      Cl595   2.545   1_565  S
N585        N586   1.325       .  A
N585        N591   1.314   1_455  A
N585       Mn593   2.218       .  S
N586        C596   1.357   1_455  A
N587        N588   1.326       .  A
N587        N589   1.314       .  A
N587       Mn594   2.223       .  S
N588        C597   1.358       .  A
N589        N590   1.325   1_655  A
N589       Mn593   2.224   1_655  S
N590        C597   1.359   1_455  A
N591        N592   1.325       .  A
N591       Mn594   2.224       .  S
N592        C596   1.359       .  A
Mn593      Cl595   2.539   1_455  S
Mn594      Cl595   2.553       .  S
N598        N599   1.319       .  A
N598        N604   1.316       .  A
N598       Mn627   2.180       .  S
N599        C606   1.348       .  A
N600        N602   1.318   1_455  A
N600        N601   1.318       .  A
N600       Mn616   2.186       .  S
N601        C607   1.347   1_455  A
N602        N603   1.315       .  A
N602       Mn627   2.184       .  S
N603        C607   1.350       .  A
N604        N605   1.314   1_655  A
N604       Mn616   2.195   1_655  S
N605        C606   1.353   1_455  A
N608        N614   1.314   1_556  A
N608        N609   1.321       .  A
N608       Mn638   2.217       .  S
N609        C617   1.358   1_556  A
N610        N611   1.328       .  A
N610        N612   1.314   1_554  A
N610       Mn616   2.231       .  S
N611        C618   1.361   1_554  A
N612        N613   1.323       .  A
N612       Mn638   2.218       .  S
N613        C618   1.356       .  A
N614        N615   1.325       .  A
N614       Mn616   2.210       .  S
N615        C617   1.355       .  A
Mn616      Cl640   2.545   1_455  S
N619        N620   1.322       .  A
N619        N625   1.313   1_554  A
N619       Mn627   2.217       .  S
N620        C628   1.357       .  A
N621        N623   1.312   1_556  A
N621        N622   1.322       .  A
N621       Mn639   2.185       .  S
N622        C629   1.351       .  A
N623        N624   1.318       .  A
N623       Mn627   2.201       .  S
N624        C629   1.355   1_554  A
N625        N626   1.325       .  A
N625       Mn639   2.210       .  S
N626        C628   1.357   1_556  A
Mn627      Cl640   2.541       .  S
N630        N631   1.317       .  A
N630        N636   1.317   1_455  A
N630       Mn638   2.193       .  S
N631        C641   1.351   1_455  A
N632        N633   1.311       .  A
N632        N634   1.316   1_655  A
N632       Mn639   2.163       .  S
N633        C642   1.346       .  A
N634        N635   1.321       .  A
N634       Mn638   2.202       .  S
N635        C642   1.354   1_455  A
N636        N637   1.316       .  A
N636       Mn639   2.174       .  S
N637        C641   1.345       .  A
Mn638      Cl640   2.540   1_456  S
Mn639      Cl640   2.546   1_556  S
N643        N644   1.318       .  A
N643        N649   1.317   1_556  A
N643       Mn672   2.190       .  S
N644        C651   1.349       .  A
N645        N647   1.315   1_554  A
N645        N646   1.321       .  A
N645       Mn661   2.192       .  S
N646        C652   1.352       .  A
N647        N648   1.311       .  A
N647       Mn672   2.170       .  S
N648        C652   1.347   1_556  A
N649        N650   1.314       .  A
N649       Mn661   2.167       .  S
N650        C651   1.345   1_554  A
N653        N659   1.312       .  A
N653        N654   1.325       .  A
N653       Mn683   2.204   1_545  S
N654        C662   1.354       .  A
N655        N656   1.325       .  A
N655        N657   1.313       .  A
N655       Mn661   2.218       .  S
N656        C663   1.357       .  A
N657        N658   1.324       .  A
N657       Mn683   2.215   1_545  S
N658        C663   1.358       .  A
N659        N660   1.317       .  A
N659       Mn661   2.193       .  S
N660        C662   1.354       .  A
Mn661      Cl685   2.546   1_554  S
N664        N665   1.326       .  A
N664        N670   1.314       .  A
N664       Mn672   2.224       .  S
N665        C673   1.359       .  A
N666        N668   1.313       .  A
N666        N667   1.321       .  A
N666       Mn684   2.209   1_545  S
N667        C674   1.358       .  A
N668        N669   1.321       .  A
N668       Mn672   2.191       .  S
N669        C674   1.352       .  A
N670        N671   1.327       .  A
N670       Mn684   2.239   1_545  S
N671        C673   1.360       .  A
Mn672      Cl685   2.540       .  S
N675        N676   1.314       .  A
N675        N681   1.317   1_554  A
N675       Mn683   2.178       .  S
N676        C686   1.348   1_554  A
N677        N678   1.317       .  A
N677        N679   1.318   1_556  A
N677       Mn684   2.186       .  S
N678        C687   1.350   1_556  A
N679        N680   1.315       .  A
N679       Mn683   2.173       .  S
N680        C687   1.344       .  A
N681        N682   1.322       .  A
N681       Mn684   2.215       .  S
N682        C686   1.355       .  A
Mn683      Cl685   2.541   1_564  S
Mn684      Cl685   2.545   1_565  S
O688        C715   1.266       .  A
O688       Mn714   2.066       .  S
C689       C1124   1.445       .  S
C689        O722   1.270       .  A
C689        O719   1.259       .  A
O690       Mn697   2.168       .  S
O690       Mn708   2.132       .  S
O690       Mn712   2.149       .  S
O690       Mn714   2.142       .  S
O691        C701   1.266       .  A
O691       Mn725   2.069       .  S
O692        C715   1.269       .  A
O692       Mn708   2.056       .  S
O693        C720   1.265       .  A
O693       Mn712   2.146       .  S
O694       Mn725   1.985       .  S
O694       Mn714   1.973       .  S
O694        C710   1.227       .  S
C695       C1087   1.487       .  S
C695        O698   1.258       .  A
C695        O721   1.211       .  S
O696       Mn716   2.133       .  S
O696       Mn697   2.162       .  S
O696       Mn730   2.128       .  S
O696       Mn712   2.188       .  S
Mn697       O726   2.134       .  S
Mn697       O702   2.141       .  S
Mn697       O729   2.137       .  S
Mn697       O703   2.160       .  S
O698       Mn712   2.149       .  S
O699        C701   1.268       .  A
O699       Mn706   2.086       .  S
C700       C1112   1.514       .  S
C700        O726   1.264       .  A
C700        O713   1.231       .  S
C701       C1091   1.458       .  S
O702        C727   1.259       .  A
O703       Mn706   2.135       .  S
O703       Mn725   2.124       .  S
O703       Mn712   2.173       .  S
O704       Mn708   1.933       .  S
O704       Mn730   1.929       .  S
O704        C727   1.216       .  S
C705       C1099   1.439       .  S
C705        O731   1.258       .  A
C705        O707   1.264       .  A
Mn706       O719   2.031       .  S
Mn706       O721   1.920       .  S
Mn706       O713   1.985       .  S
O707       Mn730   2.048       .  S
Mn708       O724   2.088       .  S
Mn708       O718   1.999       .  S
O709        C711   1.264       .  A
O709       Mn714   2.064       .  S
C710       C1079   1.513       .  S
C710        O728   1.269       .  A
C711       C1104   1.461       .  S
C711        O724   1.269       .  A
Mn712       O728   2.171       .  S
O713       Mn716   1.967       .  S
Mn714       O732   1.947       .  S
C715       C1083   1.445       .  S
Mn716       O723   2.048       .  S
Mn716       O731   2.054       .  S
Mn716       O721   1.914       .  S
C717       C1116   1.438       .  S
C717        O723   1.263       .  A
C717        O733   1.266       .  A
O718       Mn730   1.967       .  S
O718        C720   1.226       .  S
C720       C1095   1.516       .  S
O722       Mn725   2.088       .  S
Mn725       O732   1.947       .  S
C727       C1107   1.491       .  S
O729        C734   1.257       .  A
Mn730       O733   2.062       .  S
O732        C734   1.220       .  S
C734       C1120   1.504       .  S
C735        C736   1.401       .  A
C735        C740   1.390       .  A
C735       C1192   1.441       .  S
C736        C737   1.395       .  A
C736        H741   1.084       .  S
C737        C738   1.403       .  A
C737       C1332   1.472       .  S
C738        C739   1.396       .  A
C738        H742   1.082       .  S
C739        C740   1.385       .  A
C739       C1006   1.454       .  S
C740        H743   1.085       .  S
C744        C745   1.392       .  A
C744        C749   1.415       .  A
C744       C1196   1.484       .  S
C745        C746   1.397       .  A
C745        H750   1.085       .  S
C746        C747   1.408       .  A
C746        C940   1.484       .  S
C747        C748   1.416       .  A
C747        H751   1.084       .  S
C748        C749   1.417       .  A
C748       C1328   1.499       .  S
C749        H752   1.083       .  S
C753        C754   1.408       .  A
C753        C758   1.405       .  A
C753       C1280   1.490       .  S
C754        C755   1.409       .  A
C754        H759   1.084       .  S
C755        C756   1.406       .  A
C755       C1244   1.478       .  S
C756        C757   1.400       .  A
C756        H760   1.084       .  S
C757        C758   1.400       .  A
C757        C906   1.479       .  S
C758        H761   1.080       .  S
C762        C763   1.408       .  A
C762        C767   1.401       .  A
C762       C1240   1.489       .  S
C763        C764   1.410       .  A
C763        H768   1.084       .  S
C764        C765   1.403       .  A
C764       C1284   1.468       .  S
C765        C766   1.394       .  A
C765        H769   1.085       .  S
C766        C767   1.394       .  A
C766       C1018   1.468       .  S
C767        H770   1.078       .  S
C771        C772   1.382       .  A
C771        C776   1.395       .  A
C771       C1144   1.433       .  S
C772        C773   1.383       .  A
C772        H777   1.086       .  S
C773        C774   1.398       .  A
C773       C1100   1.442       .  S
C774        C775   1.397       .  A
C774        H778   1.084       .  S
C775        C776   1.393       .  A
C775       C1017   1.455       .  S
C776        H779   1.085       .  S
C780        C781   1.427       .  A
C780        C785   1.410       .  A
C780       C1096   1.516       .  S
C781        C782   1.429       .  A
C781        H786   1.083       .  S
C782        C783   1.417       .  A
C782       C1148   1.533       .  S
C783        C784   1.414       .  A
C783        H787   1.081       .  S
C784        C785   1.412       .  A
C784        C941   1.502       .  S
C785        H788   1.084       .  S
C789        C790   1.399       .  A
C789        C794   1.400       .  A
C789       C1380   1.457       .  S
C790        C791   1.397       .  A
C790        H795   1.084       .  S
C791        C792   1.387       .  A
C791        C951   1.458       .  S
C792        C793   1.401       .  A
C792        H796   1.083       .  S
C793        C794   1.383       .  A
C793       C1232   1.460       .  S
C794        H797   1.084       .  S
C798        C799   1.416       .  A
C798        C803   1.426       .  A
C798       C1236   1.524       .  S
C799        C800   1.419       .  A
C799        H804   1.083       .  S
C800        C801   1.413       .  A
C800        C995   1.505       .  S
C801        C802   1.408       .  A
C801        H805   1.084       .  S
C802        C803   1.426       .  A
C802       C1376   1.514       .  S
C803        H806   1.083       .  S
C807        C808   1.414       .  A
C807        C812   1.423       .  A
C807       C1320   1.520       .  S
C808        C809   1.417       .  A
C808        H813   1.084       .  S
C809        C810   1.415       .  A
C809       C1031   1.510       .  S
C810        C811   1.414       .  A
C810        H814   1.083       .  S
C811        C812   1.428       .  A
C811       C1140   1.517       .  S
C812        H815   1.083       .  S
C816        C817   1.397       .  A
C816        C821   1.401       .  A
C816       C1136   1.456       .  S
C817        C818   1.386       .  A
C817        H822   1.085       .  S
C818        C819   1.405       .  A
C818       C1324   1.463       .  S
C819        C820   1.388       .  A
C819        H823   1.081       .  S
C820        C821   1.399       .  A
C820        C985   1.466       .  S
C821        H824   1.084       .  S
C825        C826   1.402       .  A
C825        C830   1.407       .  A
C825       C1276   1.465       .  S
C826        C827   1.396       .  A
C826        H831   1.084       .  S
C827        C828   1.392       .  A
C827        C927   1.468       .  S
C828        C829   1.403       .  A
C828        H832   1.079       .  S
C829        C830   1.403       .  A
C829       C1128   1.483       .  S
C830        H833   1.084       .  S
C834        C835   1.418       .  A
C834        C839   1.419       .  A
C834       C1132   1.503       .  S
C835        C836   1.409       .  A
C835        H840   1.084       .  S
C836        C837   1.391       .  A
C836        C973   1.489       .  S
C837        C838   1.402       .  A
C837        H841   1.081       .  S
C838        C839   1.418       .  A
C838       C1272   1.498       .  S
C839        H842   1.083       .  S
C843        C844   1.401       .  A
C843        C848   1.404       .  A
C843       C1092   1.483       .  S
C844        C845   1.404       .  A
C844        H849   1.084       .  S
C845        C846   1.397       .  A
C845       C1184   1.457       .  S
C846        C847   1.393       .  A
C846        H850   1.085       .  S
C847        C848   1.397       .  A
C847        C986   1.466       .  S
C848        H851   1.082       .  S
C852        C853   1.411       .  A
C852        C857   1.403       .  A
C852       C1188   1.491       .  S
C853        C854   1.404       .  A
C853        H858   1.082       .  S
C854        C855   1.409       .  A
C854        C996   1.495       .  S
C855        C856   1.414       .  A
C855        H859   1.084       .  S
C856        C857   1.407       .  A
C856       C1088   1.487       .  S
C857        H860   1.084       .  S
C861        C862   1.397       .  A
C861        C866   1.395       .  A
C861       C1084   1.450       .  S
C862        C863   1.389       .  A
C862        H867   1.085       .  S
C863        C864   1.405       .  A
C863       C1224   1.464       .  S
C864        C865   1.391       .  A
C864        H868   1.082       .  S
C865        C866   1.395       .  A
C865        C916   1.461       .  S
C866        H869   1.085       .  S
C870        C871   1.418       .  A
C870        C875   1.431       .  A
C870       C1080   1.534       .  S
C871        C872   1.412       .  A
C871        H876   1.080       .  S
C872        C873   1.410       .  A
C872        C972   1.503       .  S
C873        C874   1.410       .  A
C873        H877   1.084       .  S
C874        C875   1.427       .  A
C874       C1228   1.517       .  S
C875        H878   1.083       .  S
C879        C880   1.414       .  A
C879        C884   1.410       .  A
C879       C1368   1.492       .  S
C880        C881   1.411       .  A
C880        H885   1.084       .  S
C881        C882   1.399       .  A
C881        C961   1.494       .  S
C882        C883   1.410       .  A
C882        H886   1.083       .  S
C883        C884   1.407       .  A
C883       C1180   1.490       .  S
C884        H887   1.084       .  S
C888        C889   1.399       .  A
C888        C893   1.410       .  A
C888       C1175   1.465       .  S
C889        C890   1.392       .  A
C889        H894   1.085       .  S
C890        C891   1.397       .  A
C890        C917   1.470       .  S
C891        C892   1.409       .  A
C891        H895   1.081       .  S
C892        C893   1.405       .  A
C892       C1372   1.491       .  S
C893        H896   1.084       .  S
N897        N898   1.323       .  A
N897        N903   1.315       .  A
N897       Mn926   2.223   1_455  S
N898        C905   1.357       .  A
N899        N901   1.312       .  A
N899        N900   1.324       .  A
N899       Mn915   2.198       .  S
N900        C906   1.355       .  A
N901        N902   1.316       .  A
N901       Mn926   2.186       .  S
N902        C906   1.352       .  A
N903        N904   1.327       .  A
N903       Mn915   2.229   1_455  S
N904        C905   1.359       .  A
N907        N913   1.317       .  A
N907        N908   1.315       .  A
N907       Mn937   2.169       .  S
N908        C916   1.346       .  A
N909        N910   1.316       .  A
N909        N911   1.316       .  A
N909       Mn915   2.180   1_455  S
N910        C917   1.349       .  A
N911        N912   1.321       .  A
N911       Mn937   2.206   1_455  S
N912        C917   1.354       .  A
N913        N914   1.317       .  A
N913       Mn915   2.197       .  S
N914        C916   1.351       .  A
Mn915      Cl939   2.546       .  S
N918        N919   1.321       .  A
N918        N924   1.318       .  A
N918       Mn926   2.196       .  S
N919        C927   1.351       .  A
N920        N922   1.316       .  A
N920        N921   1.311       .  A
N920       Mn938   2.165   1_455  S
N921        C928   1.345       .  A
N922        N923   1.316       .  A
N922       Mn926   2.177   1_455  S
N923        C928   1.350       .  A
N924        N925   1.313       .  A
N924       Mn938   2.190       .  S
N925        C927   1.351       .  A
Mn926      Cl939   2.541       .  S
N929        N930   1.316       .  A
N929        N935   1.313       .  A
N929       Mn937   2.192   1_455  S
N930        C940   1.353       .  A
N931        N932   1.325       .  A
N931        N933   1.312       .  A
N931       Mn938   2.214       .  S
N932        C941   1.358       .  A
N933        N934   1.326       .  A
N933       Mn937   2.224       .  S
N934        C941   1.359       .  A
N935        N936   1.326       .  A
N935       Mn938   2.210   1_455  S
N936        C940   1.356       .  A
Mn937      Cl939   2.544       .  S
Mn938      Cl939   2.538       .  S
N942        N943   1.323       .  A
N942        N948   1.317       .  A
N942       Mn971   2.205       .  S
N943        C950   1.355       .  A
N944        N946   1.317       .  A
N944        N945   1.316       .  A
N944       Mn960   2.171   1_556  S
N945        C951   1.345       .  A
N946        N947   1.316       .  A
N946       Mn971   2.192   1_556  S
N947        C951   1.351       .  A
N948        N949   1.311       .  A
N948       Mn960   2.174       .  S
N949        C950   1.347       .  A
N952        N958   1.313       .  A
N952        N953   1.324       .  A
N952       Mn982   2.229   1_556  S
N953        C961   1.361       .  A
N954        N955   1.325       .  A
N954        N956   1.313       .  A
N954       Mn960   2.209       .  S
N955        C962   1.356       .  A
N956        N957   1.327       .  A
N956       Mn982   2.238       .  S
N957        C962   1.361       .  A
N958        N959   1.323       .  A
N958       Mn960   2.201   1_556  S
N959        C961   1.353       .  A
Mn960      Cl984   2.539       .  S
N963        N964   1.326       .  A
N963        N969   1.313       .  A
N963       Mn971   2.231   1_556  S
N964        C972   1.359       .  A
N965        N967   1.312       .  A
N965        N966   1.325       .  A
N965       Mn983   2.194   1_554  S
N966        C973   1.352       .  A
N967        N968   1.319       .  A
N967       Mn971   2.217       .  S
N968        C973   1.359       .  A
N969        N970   1.325       .  A
N969       Mn983   2.216       .  S
N970        C972   1.358       .  A
Mn971      Cl984   2.548       .  S
N974        N975   1.319       .  A
N974        N980   1.318       .  A
N974       Mn982   2.207       .  S
N975        C985   1.353       .  A
N976        N977   1.313       .  A
N976        N978   1.316       .  A
N976       Mn983   2.171       .  S
N977        C986   1.348       .  A
N978        N979   1.321       .  A
N978       Mn982   2.207   1_556  S
N979        C986   1.354       .  A
N980        N981   1.317       .  A
N980       Mn983   2.173   1_554  S
N981        C985   1.344       .  A
Mn982      Cl984   2.547       .  S
Mn983      Cl984   2.544   1_556  S
N987        N988   1.326       .  A
N987        N993   1.311       .  A
N987      Mn1016   2.212       .  S
N988        C995   1.357       .  A
N989        N991   1.314       .  A
N989        N990   1.322   1_545  A
N989      Mn1005   2.212       .  S
N990        C996   1.357       .  A
N991        N992   1.326   1_545  A
N991      Mn1016   2.220       .  S
N992        C996   1.358       .  A
N993        N994   1.326       .  A
N993      Mn1005   2.230       .  S
N994        C995   1.361       .  A
N997       N1003   1.315   1_565  A
N997        N998   1.309       .  A
N997      Mn1027   2.147   1_565  S
N998       C1006   1.343       .  A
N999       N1000   1.316       .  A
N999       N1001   1.318       .  A
N999      Mn1005   2.177       .  S
N1000      C1007   1.348       .  A
N1001      N1002   1.317       .  A
N1001     Mn1027   2.190       .  S
N1002      C1007   1.348       .  A
N1003      N1004   1.319   1_545  A
N1003     Mn1005   2.199       .  S
N1004      C1006   1.354       .  A
Mn1005    Cl1029   2.553       .  S
N1008      N1009   1.314   1_545  A
N1008      N1014   1.318       .  A
N1008     Mn1016   2.169       .  S
N1009      C1017   1.344       .  A
N1010      N1012   1.318       .  A
N1010      N1011   1.323       .  A
N1010     Mn1028   2.204       .  S
N1011      C1018   1.354       .  A
N1012      N1013   1.311       .  A
N1012     Mn1016   2.183       .  S
N1013      C1018   1.348       .  A
N1014      N1015   1.317   1_545  A
N1014     Mn1028   2.193       .  S
N1015      C1017   1.352       .  A
Mn1016    Cl1029   2.530       .  S
N1019      N1020   1.320       .  A
N1019      N1025   1.310       .  A
N1019     Mn1027   2.167       .  S
N1020      C1030   1.349       .  A
N1021      N1022   1.329       .  A
N1021      N1023   1.316       .  A
N1021     Mn1028   2.249   1_565  S
N1022      C1031   1.362       .  A
N1023      N1024   1.325       .  A
N1023     Mn1027   2.228   1_565  S
N1024      C1031   1.358       .  A
N1025      N1026   1.320       .  A
N1025     Mn1028   2.209       .  S
N1026      C1030   1.357       .  A
Mn1027    Cl1029   2.536       .  S
Mn1028    Cl1029   2.551       .  S
O1032      C1059   1.260       .  A
O1032     Mn1058   2.046       .  S
C1033      C1359   1.443       .  S
C1033      O1066   1.254       .  A
C1033      O1063   1.269       .  A
O1034     Mn1041   2.149       .  S
O1034     Mn1052   2.137       .  S
O1034     Mn1056   2.155       .  S
O1034     Mn1058   2.132       .  S
O1035      C1045   1.264       .  A
O1035     Mn1069   2.064       .  S
O1036      C1059   1.262       .  A
O1036     Mn1052   2.047       .  S
O1037      C1064   1.262       .  A
O1037     Mn1056   2.144       .  S
O1038     Mn1069   1.937       .  S
O1038     Mn1058   1.971       .  S
O1038      C1054   1.221       .  S
C1039      C1428   1.477       .  S
C1039      O1042   1.259       .  A
C1039      O1065   1.223       .  S
O1040     Mn1060   2.134       .  S
O1040     Mn1041   2.155       .  S
O1040     Mn1074   2.134       .  S
O1040     Mn1056   2.156       .  S
Mn1041     O1070   2.143       .  S
Mn1041     O1046   2.132       .  S
Mn1041     O1073   2.123       .  S
Mn1041     O1047   2.176       .  S
O1042     Mn1056   2.111       .  S
O1043      C1045   1.270       .  A
O1043     Mn1050   2.077       .  S
C1044      C1352   1.515       .  S
C1044      O1070   1.259       .  A
C1044      O1057   1.222       .  S
C1045      C1456   1.457       .  S
O1046      C1071   1.264       .  A
O1047     Mn1050   2.128       .  S
O1047     Mn1069   2.141       .  S
O1047     Mn1056   2.170       .  S
O1048     Mn1052   1.966       .  S
O1048     Mn1074   1.976       .  S
O1048      C1071   1.228       .  S
C1049      C1419   1.471       .  S
C1049      O1075   1.266       .  A
C1049      O1051   1.277       .  A
Mn1050     O1063   2.083       .  S
Mn1050     O1065   1.958       .  S
Mn1050     O1057   1.961       .  S
O1051     Mn1074   2.110       .  S
Mn1052     O1068   2.087       .  S
Mn1052     O1062   1.975       .  S
O1053      C1055   1.271       .  A
O1053     Mn1058   2.088       .  S
C1054      C1447   1.513       .  S
C1054      O1072   1.261       .  A
C1055      C1304   1.466       .  S
C1055      O1068   1.272       .  A
Mn1056     O1072   2.147       .  S
O1057     Mn1060   1.967       .  S
Mn1058     O1076   1.942       .  S
C1059      C1440   1.425       .  S
Mn1060     O1067   2.076       .  S
Mn1060     O1075   2.079       .  S
Mn1060     O1065   1.962       .  S
C1061      C1400   1.448       .  S
C1061      O1067   1.269       .  A
C1061      O1077   1.263       .  A
O1062     Mn1074   1.983       .  S
O1062      C1064   1.225       .  S
C1064      C1431   1.511       .  S
O1066     Mn1069   2.023       .  S
Mn1069     O1076   1.933       .  S
C1071      C1407   1.506       .  S
O1073      C1078   1.258       .  A
Mn1074     O1077   2.060       .  S
O1076      C1078   1.219       .  S
C1078      C1312   1.482       .  S
C1079      C1080   1.370       .  D
C1079      H1081   1.083       .  S
C1080      H1082   1.086       .  S
C1083      C1084   1.339       .  D
C1083      H1085   1.088       .  S
C1084      H1086   1.087       .  S
C1087      C1088   1.357       .  D
C1087      H1089   1.085       .  S
C1088      H1090   1.087       .  S
C1091      C1092   1.345       .  D
C1091      H1093   1.084       .  S
C1092      H1094   1.087       .  S
C1095      C1096   1.366       .  D
C1095      H1097   1.086       .  S
C1096      H1098   1.086       .  S
C1099      C1100   1.337       .  D
C1099      H1101   1.087       .  S
C1100      H1102   1.089       .  S
C1103      C1104   1.342       .  D
C1103      H1105   1.087       .  S
C1104      H1106   1.086       .  S
C1107      C1108   1.356       .  D
C1107      H1109   1.086       .  S
C1108      H1110   1.087       .  S
C1111      C1112   1.363       .  D
C1111      H1113   1.086       .  S
C1112      H1114   1.086       .  S
C1115      C1116   1.338       .  D
C1115      H1117   1.086       .  S
C1116      H1118   1.088       .  S
C1119      C1120   1.357       .  D
C1119      H1121   1.086       .  S
C1120      H1122   1.086       .  S
C1123      C1124   1.327       .  D
C1123      H1125   1.087       .  S
C1124      H1126   1.088       .  S
C1127      C1128   1.345       .  D
C1127      H1129   1.085       .  S
C1128      H1130   1.087       .  S
C1131      C1132   1.362       .  D
C1131      H1133   1.085       .  S
C1132      H1134   1.087       .  S
C1135      C1136   1.345       .  D
C1135      H1137   1.087       .  S
C1136      H1138   1.087       .  S
C1139      C1140   1.366       .  D
C1139      H1141   1.085       .  S
C1140      H1142   1.084       .  S
C1143      C1144   1.334       .  D
C1143      H1145   1.088       .  S
C1144      H1146   1.088       .  S
C1147      C1148   1.368       .  D
C1147      H1149   1.084       .  S
C1148      H1150   1.086       .  S
C1151      C1152   1.338       .  D
C1151      H1153   1.089       .  S
C1152      H1154   1.087       .  S
C1155      C1156   1.352       .  D
C1155      H1157   1.086       .  S
C1156      H1158   1.087       .  S
C1159      C1160   1.359       .  D
C1159      H1161   1.086       .  S
C1160      H1162   1.087       .  S
C1163      C1164   1.339       .  D
C1163      H1165   1.087   1_565  S
C1164      H1166   1.087       .  S
C1167      C1168   1.371       .  D
C1167      H1169   1.086       .  S
C1168      H1170   1.086       .  S
C1171      C1172   1.325       .  D
C1171      H1173   1.087       .  S
C1172      H1174   1.089       .  S
C1175      C1176   1.340       .  D
C1175      H1177   1.089       .  S
C1176      H1178   1.086       .  S
C1179      C1180   1.345       .  D
C1179      H1181   1.087       .  S
C1180      H1182   1.086       .  S
C1183      C1184   1.337       .  D
C1183      H1185   1.087       .  S
C1184      H1186   1.088       .  S
C1187      C1188   1.342       .  D
C1187      H1189   1.087       .  S
C1188      H1190   1.087       .  S
C1191      C1192   1.331       .  D
C1191      H1193   1.086       .  S
C1192      H1194   1.088       .  S
C1195      C1196   1.338       .  D
C1195      H1197   1.087       .  S
C1196      H1198   1.088       .  S
C1199      C1200   1.336       .  D
C1199      H1201   1.087       .  S
C1200      H1202   1.088       .  S
C1203      C1204   1.348       .  D
C1203      H1205   1.087       .  S
C1204      H1206   1.086       .  S
C1207      C1208   1.345       .  D
C1207      H1209   1.087       .  S
C1208      H1210   1.086       .  S
C1211      C1212   1.345       .  D
C1211      H1213   1.087       .  S
C1212      H1214   1.086       .  S
C1215      C1216   1.340       .  D
C1215      H1217   1.086       .  S
C1216      H1218   1.088       .  S
C1219      C1220   1.351       .  D
C1219      H1221   1.086       .  S
C1220      H1222   1.086       .  S
C1223      C1224   1.328       .  D
C1223      H1225   1.088       .  S
C1224      H1226   1.088       .  S
C1227      C1228   1.364       .  D
C1227      H1229   1.086       .  S
C1228      H1230   1.086       .  S
C1231      C1232   1.323       .  D
C1231      H1233   1.089       .  S
C1232      H1234   1.087       .  S
C1235      C1236   1.366       .  D
C1235      H1237   1.086       .  S
C1236      H1238   1.086       .  S
C1239      C1240   1.351       .  D
C1239      H1241   1.084       .  S
C1240      H1242   1.087       .  S
C1243      C1244   1.348       .  D
C1243      H1245   1.086       .  S
C1244      H1246   1.088       .  S
C1247      C1248   1.320       .  D
C1247      H1249   1.087       .  S
C1248      H1250   1.091       .  S
C1251      C1252   1.367       .  D
C1251      H1253   1.086       .  S
C1252      H1254   1.086       .  S
C1255      C1256   1.342       .  D
C1255      H1257   1.088       .  S
C1256      H1258   1.087       .  S
C1259      C1260   1.364       .  D
C1259      H1261   1.085       .  S
C1260      H1262   1.086       .  S
C1263      C1264   1.354       .  D
C1263      H1265   1.087       .  S
C1264      H1266   1.086       .  S
C1267      C1268   1.334       .  D
C1267      H1269   1.088       .  S
C1268      H1270   1.087       .  S
C1271      C1272   1.357       .  D
C1271      H1273   1.086       .  S
C1272      H1274   1.086       .  S
C1275      C1276   1.341       .  D
C1275      H1277   1.086       .  S
C1276      H1278   1.088       .  S
C1279      C1280   1.350       .  D
C1279      H1281   1.085       .  S
C1280      H1282   1.086       .  S
C1283      C1284   1.344       .  D
C1283      H1285   1.086       .  S
C1284      H1286   1.088       .  S
C1287      C1288   1.339       .  D
C1287      H1289   1.087       .  S
C1288      H1290   1.087       .  S
C1291      C1292   1.334       .  D
C1291      H1293   1.087       .  S
C1292      H1294   1.088       .  S
C1295      C1296   1.339       .  D
C1295      H1297   1.087       .  S
C1296      H1298   1.088       .  S
C1299      C1300   1.343       .  D
C1299      H1301   1.086       .  S
C1300      H1302   1.087       .  S
C1303      C1304   1.350       .  D
C1303      H1305   1.087       .  S
C1304      H1306   1.087       .  S
C1307      C1308   1.345       .  D
C1307      H1309   1.086       .  S
C1308      H1310   1.088       .  S
C1311      C1312   1.353       .  D
C1311      H1313   1.086       .  S
C1312      H1314   1.086       .  S
C1315      C1316   1.339       .  D
C1315      H1317   1.087       .  S
C1316      H1318   1.087       .  S
C1319      C1320   1.369       .  D
C1319      H1321   1.085       .  S
C1320      H1322   1.086       .  S
C1323      C1324   1.325       .  D
C1323      H1325   1.088       .  S
C1324      H1326   1.088       .  S
C1327      C1328   1.356       .  D
C1327      H1329   1.086       .  S
C1328      H1330   1.087       .  S
C1331      C1332   1.338       .  D
C1331      H1333   1.087       .  S
C1332      H1334   1.087       .  S
C1335      C1336   1.371       .  D
C1335      H1337   1.085       .  S
C1336      H1338   1.086       .  S
C1339      C1340   1.343       .  D
C1339      H1341   1.086       .  S
C1340      H1342   1.086       .  S
C1343      C1344   1.359       .  D
C1343      H1345   1.085       .  S
C1344      H1346   1.087       .  S
C1347      C1348   1.346       .  D
C1347      H1349   1.084       .  S
C1348      H1350   1.087       .  S
C1351      C1352   1.363       .  D
C1351      H1353   1.086       .  S
C1352      H1354   1.086       .  S
C1355      C1356   1.366       .  D
C1355      H1357   1.086       .  S
C1356      H1358   1.083       .  S
C1359      C1360   1.326       .  D
C1359      H1361   1.088       .  S
C1360      H1362   1.088       .  S
C1363      C1364   1.339       .  D
C1363      H1365   1.088       .  S
C1364      H1366   1.087       .  S
C1367      C1368   1.357       .  D
C1367      H1369   1.086       .  S
C1368      H1370   1.087       .  S
C1371      C1372   1.343       .  D
C1371      H1373   1.086       .  S
C1372      H1374   1.086       .  S
C1375      C1376   1.368       .  D
C1375      H1377   1.085       .  S
C1376      H1378   1.084       .  S
C1379      C1380   1.340       .  D
C1379      H1381   1.086       .  S
C1380      H1382   1.087       .  S
C1383      C1384   1.350       .  D
C1383      H1385   1.086       .  S
C1384      H1386   1.087       .  S
C1387      C1388   1.349       .  D
C1387      H1389   1.085       .  S
C1388      H1390   1.087       .  S
C1391      C1392   1.362       .  D
C1391      H1393   1.086       .  S
C1392      H1394   1.086       .  S
C1395      C1396   1.323       .  D
C1395      H1397   1.088       .  S
C1396      H1398   1.089       .  S
C1399      C1400   1.337       .  D
C1399      H1401   1.087       .  S
C1400      H1402   1.089       .  S
C1403      C1404   1.333       .  D
C1403      H1405   1.087       .  S
C1404      H1406   1.088       .  S
C1407      C1408   1.358       .  D
C1407      H1409   1.086       .  S
C1408      H1410   1.086       .  S
C1411      C1412   1.361       .  D
C1411      H1413   1.086       .  S
C1412      H1414   1.086       .  S
C1415      C1416   1.342       .  D
C1415      H1417   1.087       .  S
C1416      H1418   1.087       .  S
C1419      C1420   1.337       .  D
C1419      H1421   1.088       .  S
C1420      H1422   1.087       .  S
C1423      C1424   1.342       .  D
C1423      H1425   1.087       .  S
C1424      H1426   1.087       .  S
C1427      C1428   1.348       .  D
C1427      H1429   1.088       .  S
C1428      H1430   1.086       .  S
C1431      C1432   1.364       .  D
C1431      H1433   1.086       .  S
C1432      H1434   1.086       .  S
C1435      C1436   1.360       .  D
C1435      H1437   1.086       .  S
C1436      H1438   1.086       .  S
C1439      C1440   1.333       .  D
C1439      H1441   1.088       .  S
C1440      H1442   1.088       .  S
C1443      C1444   1.337       .  D
C1443      H1445   1.086       .  S
C1444      H1446   1.088       .  S
C1447      C1448   1.363       .  D
C1447      H1449   1.086       .  S
C1448      H1450   1.086       .  S
C1451      C1452   1.363       .  D
C1451      H1453   1.085       .  S
C1452      H1454   1.085       .  S
C1455      C1456   1.338       .  D
C1455      H1457   1.087       .  S
C1456      H1458   1.087       .  S
C1459      C1460   1.341       .  D
C1459      H1461   1.087       .  S
C1460      H1462   1.088       .  S
