geometry optimzed in LAMMPS
_audit_creation_date              2020-12-01 
_audit_creation_method            'lammps2cif' 
_symmetry_space_group_name_H-M    'P1' 
_symmetry_Int_Tables_number       1 
_symmetry_cell_setting            triclinic 
loop_ 
_symmetry_equiv_pos_as_xyz 
  x,y,z 
_cell_length_a                    30.00098379 
_cell_length_b                    29.972894903452353 
_cell_length_c                    86.10405092277593 
_cell_angle_alpha                 89.93699562341219 
_cell_angle_beta                  90.18158282823042 
_cell_angle_gamma                 120.17832853692613 
loop_ 
_atom_site_label 
_atom_site_type_symbol 
_atom_site_fract_x 
_atom_site_fract_y 
_atom_site_fract_z 
_atom_site_charge 
O1          O  0.79493227  0.47529571  0.08245494    -0.73600
O2          O  0.67272838  0.48647018  0.08618634    -0.73600
O3          O  0.74073925  0.50262811  0.06322520    -0.73700
O4          O  0.72533501  0.45620861  0.10523960    -0.73700
O5          O  0.77249887  0.53719721  0.11353358    -0.73700
O6          O  0.78994005  0.58436594  0.07071697    -0.73600
O7          O  0.72205892  0.56848725  0.09363825    -0.73600
O8          O  0.84109769  0.55657921  0.09071831    -0.73700
Ni9        Ni  0.73160964  0.47720919  0.08400845     1.25400
Ni10       Ni  0.78294345  0.56448241  0.09247072     1.25400
C11         C  0.83839690  0.51484717  0.08615448     0.88600
C12         C  0.67810216  0.53023773  0.09014081     0.88500
C13         C  0.76805800  0.55059114  0.05987599     0.88500
C14         C  0.74682524  0.48835350  0.11636101     0.88700
O15         O  0.69551104  0.48864667  0.92201875    -0.73600
O16         O  0.82813781  0.49909712  0.91703897    -0.73600
O17         O  0.77790347  0.51435589  0.94062249    -0.73700
O18         O  0.74401023  0.47095845  0.89838063    -0.73700
O19         O  0.77756855  0.55245173  0.89067771    -0.73700
O20         O  0.81052914  0.59658429  0.93367395    -0.73600
O21         O  0.86101951  0.58099205  0.90987381    -0.73600
O22         O  0.73031999  0.57047055  0.91422489    -0.73700
Ni23       Ni  0.76034853  0.49035295  0.91974529     1.25400
Ni24       Ni  0.79634271  0.57804155  0.91183434     1.25400
C25         C  0.69151581  0.52828472  0.91872587     0.88600
C26         C  0.86690875  0.54251162  0.91295362     0.88500
C27         C  0.79863067  0.56207647  0.94425515     0.88500
C28         C  0.75306104  0.50383601  0.88757586     0.88700
O29         O  0.23421911  0.60612430  0.08134610    -0.73600
O30         O  0.36803481  0.61749885  0.08510569    -0.73600
O31         O  0.29631378  0.58959155  0.06232385    -0.73700
O32         O  0.30700316  0.63705445  0.10418224    -0.73700
O33         O  0.26979505  0.55644829  0.11292957    -0.73700
O34         O  0.25747837  0.50791654  0.07046391    -0.73600
O35         O  0.32864140  0.53608566  0.09343336    -0.73600
O36         O  0.19845363  0.52549650  0.09002476    -0.73700
Ni37       Ni  0.30284952  0.61560674  0.08299476     1.25400
Ni38       Ni  0.26248352  0.52877637  0.09206274     1.25400
C39         C  0.19400264  0.56286465  0.08479897     0.88600
C40         C  0.36956769  0.57723102  0.08942722     0.88500
C41         C  0.27453056  0.54128659  0.05941304     0.88500
C42         C  0.28982159  0.60514119  0.11551840     0.88700
O43         O  0.38663622  0.61798507  0.92275274    -0.73600
O44         O  0.26523123  0.62961024  0.91680710    -0.73600
O45         O  0.30567577  0.60188132  0.94066338    -0.73700
O46         O  0.34744821  0.64781362  0.89898131    -0.73700
O47         O  0.30549855  0.56664798  0.89045998    -0.73700
O48         O  0.26260377  0.52000071  0.93274965    -0.73600
O49         O  0.22339040  0.54824241  0.90845098    -0.73600
O50         O  0.34226803  0.53648851  0.91458800    -0.73700
Ni51       Ni  0.32777481  0.62724853  0.92007640     1.25400
Ni52       Ni  0.28178289  0.54001879  0.91124684     1.25400
C53         C  0.38387735  0.57465270  0.91977874     0.88600
C54         C  0.22411265  0.59028438  0.91157165     0.88500
C55         C  0.27801441  0.55371344  0.94370734     0.88500
C56         C  0.33396751  0.61530657  0.88782817     0.88700
O57         O  0.59252716  0.40090774  0.74721553    -0.73600
O58         O  0.60071229  0.27779057  0.75351694    -0.73600
O59         O  0.57278903  0.31764765  0.72979706    -0.73700
O60         O  0.62331673  0.36252508  0.77095670    -0.73700
O61         O  0.54331803  0.32200009  0.78020692    -0.73700
O62         O  0.49162762  0.27834598  0.73822546    -0.73600
O63         O  0.51939596  0.23784796  0.76192370    -0.73600
O64         O  0.51259177  0.35957581  0.75644220    -0.73700
Ni65       Ni  0.60028276  0.34120748  0.75011826     1.25400
Ni66       Ni  0.51398267  0.29793765  0.75959710     1.25400
C67         C  0.55024929  0.39984629  0.75055683     0.88600
C68         C  0.55999492  0.23690215  0.75811794     0.88500
C69         C  0.52432711  0.29138384  0.72707959     0.88500
C70         C  0.59229831  0.35038257  0.78240111     0.88700
O71         O  0.58429713  0.26150693  0.59081664    -0.73600
O72         O  0.58960872  0.39167758  0.58557665    -0.73600
O73         O  0.56387303  0.32247819  0.60897872    -0.73700
O74         O  0.61226937  0.33136085  0.56735670    -0.73700
O75         O  0.53142777  0.28933952  0.55855698    -0.73700
O76         O  0.48234634  0.28037236  0.60064931    -0.73600
O77         O  0.50878922  0.34968972  0.57687797    -0.73600
O78         O  0.50324952  0.22124694  0.58219435    -0.73700
Ni79       Ni  0.59045093  0.32836350  0.58844215     1.25400
Ni80       Ni  0.50363473  0.28399247  0.57922311     1.25400
C81         C  0.54201412  0.21975579  0.58768769     0.88600
C82         C  0.54949687  0.39196158  0.58051393     0.88500
C83         C  0.51547156  0.29873374  0.61176347     0.88500
C84         C  0.58020078  0.31075213  0.55612660     0.88700
O85         O  0.47250922  0.71374793  0.74802256    -0.73600
O86         O  0.47784510  0.84402051  0.75362653    -0.73600
O87         O  0.49438385  0.79587545  0.72969136    -0.73700
O88         O  0.45344730  0.76055767  0.77187246    -0.73700
O89         O  0.53527017  0.79643174  0.77934555    -0.73700
O90         O  0.57721246  0.83206743  0.73624429    -0.73600
O91         O  0.56050953  0.87959654  0.76050497    -0.73600
O92         O  0.55494638  0.75157750  0.75530920    -0.73700
Ni93       Ni  0.47163169  0.77734625  0.75057669     1.25400
Ni94       Ni  0.55990409  0.81635362  0.75813454     1.25400
C95         C  0.51334712  0.71157907  0.75100698     0.88600
C96         C  0.52087040  0.88355247  0.75764210     0.88500
C97         C  0.54195127  0.81917132  0.72580947     0.88500
C98         C  0.48685465  0.77116895  0.78262540     0.88700
O99         O  0.45962548  0.82618061  0.58857955    -0.73600
O100        O  0.46421157  0.70109606  0.58418000    -0.73600
O101        O  0.48644201  0.77071712  0.60717578    -0.73700
O102        O  0.43649763  0.75659252  0.56535605    -0.73700
O103        O  0.51694615  0.80089015  0.55662449    -0.73700
O104        O  0.56748264  0.81787038  0.59889664    -0.73600
O105        O  0.54526547  0.74688409  0.57576786    -0.73600
O106        O  0.53992548  0.87069615  0.57939992    -0.73700
Ni107      Ni  0.45880415  0.76191796  0.58659024     1.25400
Ni108      Ni  0.54530081  0.81050311  0.57736622     1.25400
C109        C  0.49926420  0.86891916  0.58462696     0.88600
C110        C  0.50581324  0.70361265  0.57937723     0.88500
C111        C  0.53487039  0.79748443  0.61002747     0.88500
C112        C  0.46814411  0.77717600  0.55404056     0.88700
O113        O  0.23846636  0.69062002  0.25783870    -0.73600
O114        O  0.36427654  0.82110503  0.25304617    -0.73600
O115        O  0.29500420  0.77336202  0.27622810    -0.73700
O116        O  0.30774063  0.73640289  0.23455134    -0.73700
O117        O  0.26445354  0.77332289  0.22557816    -0.73700
O118        O  0.24729670  0.80640555  0.26781957    -0.73600
O119        O  0.31833030  0.85608797  0.24480775    -0.73600
O120        O  0.19462366  0.72654734  0.24827509    -0.73700
Ni121      Ni  0.30319835  0.75428706  0.25568821     1.25400
Ni122      Ni  0.25487012  0.79214177  0.24631042     1.25400
C123        C  0.19587250  0.68757863  0.25372497     0.88600
C124        C  0.36181917  0.86045580  0.24834113     0.88500
C125        C  0.26742029  0.79393806  0.27899968     0.88500
C126        C  0.28715925  0.74725898  0.22317018     0.88700
O127        O  0.35706829  0.81360306  0.41163744    -0.73600
O128        O  0.23333666  0.68444542  0.42027170    -0.73600
O129        O  0.26972227  0.74978670  0.39574252    -0.73700
O130        O  0.32176254  0.74721954  0.43616221    -0.73700
O131        O  0.28459977  0.78898157  0.44599037    -0.73700
O132        O  0.23422218  0.79430052  0.40488949    -0.73600
O133        O  0.19738693  0.72836735  0.42946764    -0.73600
O134        O  0.31948394  0.85498936  0.42153672    -0.73700
Ni135      Ni  0.29678146  0.74717526  0.41564879     1.25400
Ni136      Ni  0.25755505  0.79302301  0.42584469     1.25400
C137        C  0.35801060  0.85581821  0.41498658     0.88600
C138        C  0.19463409  0.68552105  0.42618441     0.88500
C139        C  0.24464499  0.77337876  0.39350070     0.88500
C140        C  0.31208214  0.76741453  0.44782165     0.88700
O141        O  0.79444300  0.38857701  0.25773800    -0.73600
O142        O  0.66487134  0.26268629  0.25166398    -0.73600
O143        O  0.73360609  0.30440571  0.27523529    -0.73700
O144        O  0.72501458  0.34784862  0.23396114    -0.73700
O145        O  0.76844153  0.31126425  0.22484088    -0.73700
O146        O  0.77524007  0.26542678  0.26641662    -0.73600
O147        O  0.70732472  0.22549022  0.24215693    -0.73600
O148        O  0.83525888  0.34859007  0.24907523    -0.73700
Ni149      Ni  0.72789614  0.32723405  0.25491830     1.25400
Ni150      Ni  0.77281961  0.28619946  0.24524504     1.25400
C151        C  0.83627016  0.38837597  0.25480137     0.88600
C152        C  0.66509226  0.22311554  0.24607408     0.88500
C153        C  0.75648478  0.27871196  0.27770914     0.88500
C154        C  0.74616190  0.33786346  0.22260978     0.88700
O155        O  0.66674431  0.25401824  0.41576738    -0.73600
O156        O  0.79604680  0.38158082  0.42069752    -0.73600
O157        O  0.74724020  0.31421641  0.39726737    -0.73700
O158        O  0.71362868  0.32308985  0.43926231    -0.73700
O159        O  0.75106384  0.27910379  0.44722493    -0.73700
O160        O  0.78452388  0.26902492  0.40409918    -0.73600
O161        O  0.83227090  0.33581026  0.42800045    -0.73600
O162        O  0.70579734  0.21123702  0.42355612    -0.73700
Ni163      Ni  0.72958285  0.31982775  0.41802779     1.25400
Ni164      Ni  0.76983375  0.27232245  0.42601742     1.25400
C165        C  0.66576519  0.21145603  0.41868862     0.88600
C166        C  0.83588136  0.37919058  0.42498184     0.88500
C167        C  0.77048274  0.28994056  0.39352198     0.88500
C168        C  0.72647245  0.30307518  0.45025175     0.88700
C169        C  0.72641415  0.24331863  0.32006844    -0.13500
C170        C  0.77594641  0.26891455  0.32665982     0.16800
C171        C  0.81925424  0.29134408  0.31678462     0.03100
C172        C  0.81228118  0.28949606  0.30056098    -0.12000
C173        C  0.76260254  0.26675088  0.29403250    -0.03100
C174        C  0.71938735  0.24198956  0.30389933     0.02400
C175        C  0.78094609  0.27680507  0.34377757     0.09200
N176        N  0.87030457  0.31938690  0.32307582     0.65600
H177        H  0.84569073  0.30961532  0.29313987     0.18500
N178        N  0.66818382  0.21586160  0.29760069     0.76000
H179        H  0.69302625  0.22567791  0.32757638     0.10000
C180        C  0.77578843  0.31679131  0.35038210     0.03700
C181        C  0.77558693  0.32171903  0.36651503    -0.05000
C182        C  0.77928059  0.28655552  0.37657050    -0.23400
C183        C  0.78664843  0.24754648  0.36993856     0.12900
C184        C  0.78764851  0.24312606  0.35362031    -0.12600
N185        N  0.76885771  0.35176861  0.34076644     0.64600
H186        H  0.77065413  0.35249999  0.37116489     0.12500
N187        N  0.79022978  0.21048259  0.37949853     0.61300
H188        H  0.79162205  0.21217663  0.34863691     0.08600
O189        O  0.63332712  0.22208136  0.30358124    -0.40200
O190        O  0.65665566  0.18296960  0.28692987    -0.39400
O191        O  0.90300030  0.30627994  0.31967449    -0.39400
O192        O  0.88457069  0.36088732  0.33040091    -0.37100
O193        O  0.74980354  0.17254639  0.38485646    -0.38000
O194        O  0.83291014  0.21221198  0.38103531    -0.34100
O195        O  0.72440328  0.33949312  0.33591200    -0.35600
O196        O  0.80580746  0.39707096  0.33870413    -0.39800
C197        C  0.54098718  0.10060375  0.40262127    -0.13500
C198        C  0.53371470  0.06068351  0.41276260     0.16800
C199        C  0.56905346  0.07116059  0.42494752     0.03100
C200        C  0.61126559  0.12080222  0.42663978    -0.12000
C201        C  0.61874993  0.16089964  0.41657364    -0.03100
C202        C  0.58337958  0.15061724  0.40438056     0.02400
C203        C  0.48849968  0.00839757  0.41086225     0.09200
N204        N  0.56176322  0.03219017  0.43597628     0.65600
H205        H  0.63794850  0.12827831  0.43609972     0.18500
N206        N  0.59155425  0.18941744  0.39320550     0.76000
H207        H  0.51430177  0.09253802  0.39312994     0.10000
C208        C  0.43827376  0.00046025  0.41181423     0.03700
C209        C  0.39636937  0.95024541  0.41201872    -0.05000
C210        C  0.40330739  0.90712957  0.41157469    -0.23400
C211        C  0.45342121  0.91518237  0.40936331     0.12900
C212        C  0.49559825  0.96571494  0.40912367    -0.12600
N213        N  0.42932230  0.04278306  0.41375533     0.64600
H214        H  0.35827290  0.94516439  0.41338830     0.12500
N215        N  0.46244313  0.87283960  0.40796894     0.61300
H216        H  0.53411388  0.97169353  0.40800286     0.08600
O217        O  0.55618902  0.19938619  0.39034850    -0.40200
O218        O  0.63153127  0.20920997  0.38487458    -0.39400
O219        O  0.59816320  0.02387032  0.43896738    -0.39400
O220        O  0.52052800  0.00910784  0.44368879    -0.37100
O221        O  0.45197816  0.84799024  0.39537892    -0.38000
O222        O  0.48753687  0.86511337  0.41836487    -0.34100
O223        O  0.39966773  0.04828829  0.40453083    -0.35600
O224        O  0.44717268  0.07184000  0.42547767    -0.39800
C225        C  0.95101401  0.51524148  0.42040891    -0.13500
C226        C  0.98954523  0.50985010  0.42793963     0.16800
C227        C  0.97701295  0.46287558  0.43508479     0.03100
C228        C  0.92656561  0.42147959  0.43421223    -0.12000
C229        C  0.88763257  0.42597287  0.42640058    -0.03100
C230        C  0.90026276  0.47373535  0.41955175     0.02400
C231        C  0.04308861  0.55319043  0.42792161     0.09200
N232        N  0.01507612  0.45691374  0.44340085     0.65600
H233        H  0.91796021  0.38559996  0.43976258     0.18500
N234        N  0.86282401  0.48012947  0.41110252     0.76000
H235        H  0.96070614  0.55145153  0.41486425     0.10000
C236        C  0.08108767  0.55281583  0.41840440     0.03700
C237        C  0.13171462  0.59470286  0.41887995    -0.05000
C238        C  0.14475268  0.63737662  0.42850296    -0.23400
C239        C  0.10694091  0.63606848  0.43861177     0.12900
C240        C  0.05647028  0.59439445  0.43806079    -0.12600
N241        N  0.06824500  0.51153473  0.40766804     0.64600
H242        H  0.15996903  0.59530104  0.41097130     0.12500
N243        N  0.11924594  0.67650773  0.44960272     0.61300
H244        H  0.02763782  0.59382461  0.44571976     0.08600
O245        O  0.85825876  0.47246976  0.39663003    -0.40200
O246        O  0.83936163  0.49993015  0.41767986    -0.39400
O247        O  0.03282306  0.48055726  0.45606168    -0.39400
O248        O  0.02607767  0.42330957  0.43916078    -0.37100
O249        O  0.09324254  0.69900543  0.44990235    -0.38000
O250        O  0.15280513  0.68634083  0.45996731    -0.34100
O251        O  0.03256374  0.49933167  0.39786385    -0.35600
O252        O  0.09622974  0.49126899  0.40678077    -0.39800
C253        C  0.48948136  0.98337255  0.25706124    -0.13500
C254        C  0.48840247  0.01710377  0.24596261     0.16800
C255        C  0.44825248  0.99799572  0.23495487     0.03100
C256        C  0.40897089  0.94618369  0.23555460    -0.12000
C257        C  0.40886611  0.91230617  0.24692944    -0.03100
C258        C  0.45073896  0.93103668  0.25753261     0.02400
C259        C  0.53113582  0.07147080  0.24547847     0.09200
N260        N  0.44596412  0.03123172  0.22342421     0.65600
H261        H  0.37757742  0.93269441  0.22729667     0.18500
N262        N  0.45442255  0.89830254  0.26900477     0.76000
H263        H  0.52116661  0.99767825  0.26523117     0.10000
C264        C  0.53910108  0.10615592  0.25764293     0.03700
C265        C  0.58123026  0.15665812  0.25715556    -0.05000
C266        C  0.61659508  0.17293738  0.24485416    -0.23400
C267        C  0.60816621  0.13833137  0.23257401     0.12900
C268        C  0.56557314  0.08811997  0.23295273    -0.12600
N269        N  0.50518026  0.09027550  0.27068661     0.64600
H270        H  0.58733017  0.18255133  0.26669611     0.12500
N271        N  0.64246822  0.15373422  0.21961658     0.61300
H272        H  0.55976886  0.06177528  0.22356814     0.08600
O273        O  0.46669432  0.91438814  0.28277161    -0.40200
O274        O  0.45803503  0.85999281  0.26472164    -0.39400
O275        O  0.44529418  0.02083731  0.20919771    -0.39400
O276        O  0.44133049  0.06918038  0.22744591    -0.37100
O277        O  0.64322412  0.18560567  0.20987905    -0.38000
O278        O  0.66907262  0.13256139  0.21723730    -0.34100
O279        O  0.52127592  0.08664639  0.28392036    -0.35600
O280        O  0.46052386  0.08402286  0.26925141    -0.39800
C281        C  0.95147982  0.52371221  0.25451716    -0.13500
C282        C  0.99092522  0.51361650  0.25875601     0.16800
C283        C  0.97781928  0.46383527  0.26386527     0.03100
C284        C  0.92621901  0.42443735  0.26356385    -0.12000
C285        C  0.88729944  0.43351384  0.25809190    -0.03100
C286        C  0.89981997  0.48405632  0.25416553     0.02400
C287        C  0.04544309  0.55494709  0.25711502     0.09200
N288        N  0.01656668  0.45177300  0.26838710     0.65600
H289        H  0.91683156  0.38579318  0.26681586     0.18500
N290        N  0.86123924  0.49494579  0.24873404     0.76000
H291        H  0.96109023  0.56212743  0.25093748     0.10000
C292        C  0.06401524  0.58048334  0.24277403     0.03700
C293        C  0.11397470  0.62289009  0.24192889    -0.05000
C294        C  0.14667716  0.63896204  0.25490529    -0.23400
C295        C  0.12933722  0.61176226  0.26897698     0.12900
C296        C  0.07864618  0.57034921  0.27005348    -0.12600
N297        N  0.03283295  0.56349501  0.22897406     0.64600
H298        H  0.12756981  0.64338394  0.23104315     0.12500
N299        N  0.16133927  0.62811396  0.28251271     0.61300
H300        H  0.06470739  0.55117874  0.28110145     0.08600
O301        O  0.85634538  0.49977417  0.23436935    -0.40200
O302        O  0.83676739  0.50628863  0.25832512    -0.39400
O303        O  0.01280793  0.42952335  0.28117226    -0.39400
O304        O  0.05168433  0.45863524  0.25899508    -0.37100
O305        O  0.16118259  0.66148704  0.29138640    -0.38000
O306        O  0.18341865  0.60378694  0.28682064    -0.34100
O307        O  0.03239776  0.59604098  0.21975164    -0.35600
O308        O  0.00965290  0.51639279  0.22521098    -0.39800
C309        C  0.24198801  0.83039068  0.35436667    -0.13500
C310        C  0.22517378  0.78717185  0.34465184     0.16800
C311        C  0.20640134  0.73800629  0.35148427     0.03100
C312        C  0.20919713  0.73385697  0.36769111    -0.12000
C313        C  0.23023493  0.77774182  0.37728465    -0.03100
C314        C  0.24445976  0.82605861  0.37057267     0.02400
C315        C  0.23427864  0.79516213  0.32759901     0.09200
N316        N  0.18760492  0.69237928  0.34215586     0.65600
H317        H  0.19782837  0.69662300  0.37271519     0.18500
N318        N  0.26650074  0.87190764  0.37981002     0.76000
H319        H  0.25626595  0.86808953  0.34927460     0.10000
C320        C  0.19383284  0.77507392  0.31653374     0.03700
C321        C  0.20561391  0.77819116  0.30056937    -0.05000
C322        C  0.25685938  0.80022398  0.29545348    -0.23400
C323        C  0.29689999  0.82155065  0.30654006     0.12900
C324        C  0.28543936  0.81933775  0.32237904    -0.12600
N325        N  0.14093869  0.75052347  0.32132152     0.64600
H326        H  0.17451168  0.76148473  0.29214813     0.12500
N327        N  0.34959104  0.84575336  0.30185916     0.61300
H328        H  0.31678851  0.83482261  0.33073745     0.08600
O329        O  0.24528197  0.89909463  0.38019160    -0.40200
O330        O  0.31119590  0.88962728  0.38538764    -0.39400
O331        O  0.21519864  0.69018604  0.33148601    -0.39400
O332        O  0.14612797  0.65212945  0.34577679    -0.37100
O333        O  0.37455797  0.89396469  0.29984770    -0.38000
O334        O  0.37338436  0.82106642  0.30264865    -0.34100
O335        O  0.12706608  0.77107131  0.33157641    -0.35600
O336        O  0.10730769  0.71004850  0.31457948    -0.39800
C337        C  0.45643959  0.79984383  0.51055737    -0.13500
C338        C  0.40286462  0.77127819  0.50833929     0.16800
C339        C  0.37121794  0.74354161  0.52096968     0.03100
C340        C  0.39337429  0.74573520  0.53556837    -0.12000
C341        C  0.44718276  0.77434408  0.53795795    -0.03100
C342        C  0.47881917  0.80151770  0.52511037     0.02400
C343        C  0.38036057  0.77161136  0.49287687     0.09200
N344        N  0.31651274  0.71217445  0.51906609     0.65600
H345        H  0.36803931  0.72430493  0.54506977     0.18500
N346        N  0.53363382  0.83181195  0.52660991     0.76000
H347        H  0.48108625  0.82130728  0.50092479     0.10000
C348        C  0.35317113  0.79817066  0.49040491     0.03700
C349        C  0.33001778  0.79510872  0.47586605    -0.05000
C350        C  0.33396238  0.76659439  0.46348441    -0.23400
C351        C  0.36095062  0.73962131  0.46618343     0.12900
C352        C  0.38398850  0.74274655  0.48068143    -0.12600
N353        N  0.35004797  0.82961092  0.50240046     0.64600
H354        H  0.31013893  0.81646343  0.47414561     0.12500
N355        N  0.36450200  0.70777661  0.45447904     0.61300
H356        H  0.40398146  0.72153297  0.48253677     0.08600
O357        O  0.56016824  0.80986962  0.52663770    -0.40200
O358        O  0.55584524  0.88022308  0.52518333    -0.39400
O359        O  0.29816027  0.67580428  0.50930590    -0.39400
O360        O  0.28655887  0.71708081  0.52825414    -0.37100
O361        O  0.40701173  0.72200247  0.44784247    -0.38000
O362        O  0.32734593  0.66256990  0.45235235    -0.34100
O363        O  0.39055714  0.86366800  0.50902358    -0.35600
O364        O  0.30758662  0.82697540  0.50531562    -0.39800
C365        C  0.60439158  0.83689601  0.68567619    -0.13500
C366        C  0.56508200  0.83396395  0.67602460     0.16800
C367        C  0.52161451  0.83182001  0.68290302     0.03100
C368        C  0.51641476  0.82957901  0.69907815    -0.12000
C369        C  0.55415233  0.82968753  0.70888613    -0.03100
C370        C  0.59943951  0.83515542  0.70201268     0.02400
C371        C  0.56519559  0.82532356  0.65898370     0.09200
N372        N  0.48116165  0.82952506  0.67349426     0.65600
H373        H  0.48173509  0.82642910  0.70395923     0.18500
N374        N  0.63905336  0.83546622  0.71133496     0.76000
H375        H  0.63784391  0.83813019  0.68051601     0.10000
C376        C  0.59066568  0.86618566  0.64830831     0.03700
C377        C  0.58423148  0.85612754  0.63220335    -0.05000
C378        C  0.55189563  0.80576433  0.62656431    -0.23400
C379        C  0.52886069  0.76469320  0.63731134     0.12900
C380        C  0.53537713  0.77483159  0.65332147    -0.12600
N381        N  0.62028147  0.91829590  0.65363563     0.64600
H382        H  0.60151026  0.88814094  0.62414602     0.12500
N383        N  0.49888134  0.71239026  0.63207246     0.61300
H384        H  0.51633610  0.74314366  0.66143521     0.08600
O385        O  0.67897952  0.87771161  0.71462140    -0.40200
O386        O  0.63669597  0.79347326  0.71488073    -0.39400
O387        O  0.43867536  0.78788461  0.67237725    -0.39400
O388        O  0.48641329  0.87005268  0.66729668    -0.37100
O389        O  0.45539808  0.68254122  0.63800432    -0.38000
O390        O  0.51811077  0.69459058  0.62262562    -0.34100
O391        O  0.66825184  0.94358297  0.65128448    -0.35600
O392        O  0.59779245  0.94091794  0.65901897    -0.39800
C393        C  0.48443700  0.07574628  0.59361508    -0.13500
C394        C  0.52840667  0.07110376  0.59280066     0.16800
C395        C  0.57730098  0.11552214  0.59124380     0.03100
C396        C  0.58141261  0.16406993  0.59006533    -0.12000
C397        C  0.53715337  0.16878561  0.59032125    -0.03100
C398        C  0.48824886  0.12393414  0.59237055     0.02400
C399        C  0.52133911  0.01912855  0.59113791     0.09200
N400        N  0.62279086  0.11154257  0.59049844     0.65600
H401        H  0.61908363  0.19786926  0.58853237     0.18500
N402        N  0.44184592  0.12631565  0.59287708     0.76000
H403        H  0.44674827  0.04152765  0.59460738     0.10000
C404        C  0.50374471  0.98374024  0.60353769     0.03700
C405        C  0.49266656  0.93301863  0.60096532    -0.05000
C406        C  0.49955327  0.91766501  0.58621330    -0.23400
C407        C  0.51526560  0.95259088  0.57366492     0.12900
C408        C  0.52652990  0.00322539  0.57630466    -0.12600
N409        N  0.49920555  0.99950952  0.61885946     0.64600
H410        H  0.48163517  0.90654416  0.61065149     0.12500
N411        N  0.51851965  0.93667092  0.55817432     0.61300
H412        H  0.53790406  0.02996624  0.56667997     0.08600
O413        O  0.42713592  0.13552690  0.60556631    -0.40200
O414        O  0.41177625  0.11139307  0.58132583    -0.39400
O415        O  0.65092945  0.12676117  0.57857487    -0.39400
O416        O  0.63587675  0.09444732  0.60197996    -0.37100
O417        O  0.48317407  0.89402003  0.55297680    -0.38000
O418        O  0.55347635  0.96747425  0.54909648    -0.34100
O419        O  0.45758565  0.97443066  0.62627494    -0.35600
O420        O  0.53812397  0.03579019  0.62550138    -0.39800
C421        C  0.54284792  0.60558803  0.56656716    -0.13500
C422        C  0.52477285  0.57108501  0.57909147     0.16800
C423        C  0.49860855  0.57906036  0.59132395     0.03100
C424        C  0.49033060  0.62103109  0.59083828    -0.12000
C425        C  0.50933294  0.65632776  0.57848625    -0.03100
C426        C  0.53545605  0.64818217  0.56618498     0.02400
C427        C  0.53244793  0.52615903  0.57905007     0.09200
N428        N  0.48090442  0.54515343  0.60439588     0.65600
H429        H  0.47036589  0.62684540  0.60033701     0.18500
N430        N  0.55317738  0.68188865  0.55302621     0.76000
H431        H  0.56238934  0.59917399  0.55704697     0.10000
C432        C  0.50118856  0.48273054  0.56984570     0.03700
C433        C  0.50936032  0.44072248  0.56990733    -0.05000
C434        C  0.54832500  0.44085052  0.57912404    -0.23400
C435        C  0.58110383  0.48565199  0.58788563     0.12900
C436        C  0.57236278  0.52750433  0.58789798    -0.12600
N437        N  0.45985629  0.48010849  0.56078644     0.64600
H438        H  0.48393726  0.40717605  0.56303765     0.12500
N439        N  0.62279562  0.48926734  0.59699719     0.61300
H440        H  0.59708467  0.56142135  0.59473193     0.08600
O441        O  0.52110665  0.68475813  0.54416766    -0.40200
O442        O  0.60033633  0.70524402  0.54946492    -0.39400
O443        O  0.50775868  0.55715143  0.61662919    -0.39400
O444        O  0.43647683  0.50567054  0.60423194    -0.37100
O445        O  0.66148229  0.49214549  0.59027245    -0.38000
O446        O  0.62593666  0.50051680  0.61123029    -0.34100
O447        O  0.45951795  0.47513858  0.54622983    -0.35600
O448        O  0.42139935  0.47798347  0.56743329    -0.39800
C449        C  0.68268108  0.34885491  0.48541555    -0.13500
C450        C  0.67074389  0.30949204  0.49627584     0.16800
C451        C  0.67965428  0.26886186  0.49216838     0.03100
C452        C  0.69931330  0.26806744  0.47734697    -0.12000
C453        C  0.71111137  0.30748635  0.46646849    -0.03100
C454        C  0.70332873  0.34872410  0.47080410     0.02400
C455        C  0.64729395  0.31072229  0.51154187     0.09200
N456        N  0.66934789  0.22834607  0.50294910     0.65600
H457        H  0.70477303  0.23620048  0.47427376     0.18500
N458        N  0.71694559  0.39141343  0.46059017     0.76000
H459        H  0.67602170  0.38009082  0.48831045     0.10000
C460        C  0.67118868  0.35409315  0.52152888     0.03700
C461        C  0.64780294  0.35380131  0.53570620    -0.05000
C462        C  0.60070145  0.31107915  0.54031888    -0.23400
C463        C  0.57608468  0.26840388  0.53014989     0.12900
C464        C  0.59922183  0.26873935  0.51590283    -0.12600
N465        N  0.71990768  0.39823540  0.51768735     0.64600
H466        H  0.66717637  0.38682423  0.54332072     0.12500
N467        N  0.52899793  0.22324058  0.53446294     0.61300
H468        H  0.57993355  0.23565162  0.50831719     0.08600
O469        O  0.76331737  0.42008212  0.45657846    -0.40200
O470        O  0.68372116  0.40354905  0.45682901    -0.39400
O471        O  0.64426083  0.18180625  0.49865380    -0.39400
O472        O  0.68831592  0.23905292  0.51646224    -0.37100
O473        O  0.48888642  0.20872317  0.52636931    -0.38000
O474        O  0.52886860  0.19478399  0.54530128    -0.34100
O475        O  0.72585961  0.44295324  0.51855338    -0.35600
O476        O  0.75821829  0.39302031  0.51472273    -0.39800
C477        C  0.49455150  0.99427338  0.76234800    -0.13500
C478        C  0.54046830  0.03557169  0.75640736     0.16800
C479        C  0.57998574  0.02667865  0.75135432     0.03100
C480        C  0.57306423  0.97701017  0.75252167    -0.12000
C481        C  0.52681684  0.93547163  0.75815493    -0.03100
C482        C  0.48730637  0.94429147  0.76327150     0.02400
C483        C  0.54702900  0.08799727  0.75614300     0.09200
N484        N  0.62627219  0.06698818  0.74440545     0.65600
H485        H  0.60311860  0.97033070  0.74830711     0.18500
N486        N  0.44088260  0.90373976  0.77004705     0.76000
H487        H  0.46475197  0.00124194  0.76660682     0.10000
C488        C  0.51027270  0.09720583  0.74883328     0.03700
C489        C  0.51517075  0.14600686  0.74998954    -0.05000
C490        C  0.55705302  0.18647243  0.75781631    -0.23400
C491        C  0.59442539  0.17780511  0.76478900     0.12900
C492        C  0.58903652  0.12859497  0.76400815    -0.12600
N493        N  0.46871837  0.05791882  0.73984570     0.64600
H494        H  0.48696693  0.15288929  0.74431906     0.12500
N495        N  0.63557650  0.21730927  0.77368801     0.61300
H496        H  0.61681401  0.12163877  0.76990809     0.08600
O497        O  0.39790925  0.89955396  0.76675924    -0.40200
O498        O  0.44329529  0.87588209  0.78064971    -0.39400
O499        O  0.66928992  0.07103821  0.74753407    -0.39400
O500        O  0.62374154  0.09528112  0.73397285    -0.37100
O501        O  0.62650501  0.22819296  0.78702809    -0.38000
O502        O  0.68158423  0.23591830  0.76923976    -0.34100
O503        O  0.42380411  0.05112214  0.74106529    -0.35600
O504        O  0.47766323  0.03317402  0.72966055    -0.39800
C505        C  0.49075605  0.48510559  0.74514069    -0.13500
C506        C  0.53450535  0.53300568  0.74228144     0.16800
C507        C  0.58327153  0.53684069  0.74137786     0.03100
C508        C  0.58753626  0.49293119  0.74396203    -0.12000
C509        C  0.54396216  0.44512034  0.74751446    -0.03100
C510        C  0.49484913  0.44142990  0.74793127     0.02400
C511        C  0.52955945  0.57944028  0.74358821     0.09200
N512        N  0.62877287  0.58531193  0.73818197     0.65600
H513        H  0.62517940  0.49648183  0.74339415     0.18500
N514        N  0.44878242  0.39447666  0.75184940     0.76000
H515        H  0.45350645  0.48225677  0.74627859     0.10000
C516        C  0.49519229  0.58702231  0.73423076     0.03700
C517        C  0.48771179  0.62883954  0.73725883    -0.05000
C518        C  0.51430694  0.66314939  0.74945441    -0.23400
C519        C  0.54697921  0.65401483  0.75913625     0.12900
C520        C  0.55474976  0.61287887  0.75601726    -0.12600
N521        N  0.46892266  0.55351090  0.72141125     0.64600
H522        H  0.46302797  0.63579433  0.72968693     0.12500
N523        N  0.57061606  0.68479419  0.77265752     0.61300
H524        H  0.57900939  0.60574403  0.76373499     0.08600
O525        O  0.41287235  0.37344215  0.74198332    -0.40200
O526        O  0.43912642  0.38162533  0.76594151    -0.39400
O527        O  0.66941882  0.59939028  0.74597373    -0.39400
O528        O  0.62902486  0.61336089  0.72719451    -0.37100
O529        O  0.61906029  0.70906901  0.77408059    -0.38000
O530        O  0.54292655  0.68281536  0.78393830    -0.34100
O531        O  0.42066316  0.53308676  0.72005508    -0.35600
O532        O  0.49428246  0.54706803  0.71086491    -0.39800
C533        C  0.46220074  0.28290819  0.68776697    -0.13500
C534        C  0.49238768  0.27124447  0.67797897     0.16800
C535        C  0.52883558  0.26014050  0.68472531     0.03100
C536        C  0.53562607  0.26317014  0.70093740    -0.12000
C537        C  0.50750622  0.27770184  0.71064822    -0.03100
C538        C  0.46933503  0.28601592  0.70396667     0.02400
C539        C  0.48865391  0.27532842  0.66080045     0.09200
N540        N  0.56148141  0.24890982  0.67532017     0.65600
H541        H  0.56522373  0.25692324  0.70593584     0.18500
N542        N  0.44129660  0.30285741  0.71327732     0.76000
H543        H  0.43438928  0.29173961  0.68273777     0.10000
C544        C  0.47364370  0.23277512  0.65073507     0.03700
C545        C  0.47903758  0.24092868  0.63455677    -0.05000
C546        C  0.49885111  0.29050561  0.62820394    -0.23400
C547        C  0.51198562  0.33257377  0.63822271     0.12900
C548        C  0.50656434  0.32453690  0.65436819    -0.12600
N549        N  0.45489851  0.18166236  0.65674337     0.64600
H550        H  0.47004697  0.20893244  0.62696178     0.12500
N551        N  0.53228260  0.38382383  0.63219530     0.61300
H552        H  0.51823951  0.35720189  0.66199515     0.08600
O553        O  0.39569011  0.27108104  0.71730759    -0.40200
O554        O  0.45927492  0.35047354  0.71553066    -0.39400
O555        O  0.58466177  0.27679257  0.66374385    -0.39400
O556        O  0.57217795  0.21511437  0.67965902    -0.37100
O557        O  0.51123128  0.39177791  0.62063102    -0.38000
O558        O  0.56891084  0.42174883  0.63908720    -0.34100
O559        O  0.42360131  0.16531698  0.66794298    -0.35600
O560        O  0.46698033  0.15149457  0.65024235    -0.39800
C561        C  0.47527597  0.72323834  0.82482378    -0.13500
C562        C  0.42195466  0.70056497  0.82727342     0.16800
C563        C  0.39133981  0.70406104  0.81547369     0.03100
C564        C  0.41392826  0.72925003  0.80149156    -0.12000
C565        C  0.46730680  0.75143778  0.79871149    -0.03100
C566        C  0.49837468  0.74917817  0.81082358     0.02400
C567        C  0.39906288  0.67755504  0.84266281     0.09200
N568        N  0.33677079  0.68090122  0.81738766     0.65600
H569        H  0.38889672  0.73019504  0.79258906     0.18500
N570        N  0.55323421  0.77345700  0.80932633     0.76000
H571        H  0.49929387  0.72206615  0.83402805     0.10000
C572        C  0.39174058  0.62933238  0.84747280     0.03700
C573        C  0.36854439  0.60835356  0.86190780    -0.05000
C574        C  0.35289784  0.63514431  0.87185351    -0.23400
C575        C  0.36007734  0.68340141  0.86691271     0.12900
C576        C  0.38295979  0.70400520  0.85248522    -0.12600
N577        N  0.40760463  0.60124125  0.83777948     0.64600
H578        H  0.36404612  0.57173001  0.86551854     0.12500
N579        N  0.34321922  0.71151367  0.87627352     0.61300
H580        H  0.38781541  0.74076370  0.84885212     0.08600
O581        O  0.57968074  0.82179290  0.80767115    -0.40200
O582        O  0.57573006  0.74885474  0.81291309    -0.39400
O583        O  0.31588498  0.70838226  0.81680248    -0.39400
O584        O  0.30894061  0.63246681  0.81835100    -0.37100
O585        O  0.37520796  0.75651092  0.88084783    -0.38000
O586        O  0.29577561  0.69314002  0.87887827    -0.34100
O587        O  0.45021921  0.60359641  0.84023552    -0.35600
O588        O  0.37728703  0.57086324  0.82757990    -0.39800
C589        C  0.31798681  0.69602069  0.15021620    -0.12300
C590        C  0.28711321  0.66193853  0.16191358     0.16800
C591        C  0.25775485  0.60849705  0.15839284     0.03100
C592        C  0.26111144  0.59077336  0.14347438    -0.12000
C593        C  0.29166711  0.62504507  0.13168017    -0.03100
C594        C  0.32060414  0.67840211  0.13532819     0.02400
C595        C  0.28768064  0.68346811  0.17771001     0.09200
N596        N  0.22311618  0.57194217  0.16957523     0.65600
H597        H  0.23784449  0.55002196  0.14089451     0.18500
N598        N  0.35363554  0.71553831  0.12414454     0.76000
H599        H  0.34101342  0.73688182  0.15273405     0.10000
C600        C  0.30193704  0.66687289  0.19128955     0.03700
C601        C  0.30150128  0.68842345  0.20579301    -0.05000
C602        C  0.28827144  0.72719989  0.20726337    -0.23400
C603        C  0.27449211  0.74386571  0.19362844     0.12900
C604        C  0.27424461  0.72200161  0.17914035    -0.12600
N605        N  0.31781691  0.62895883  0.19060242     0.64600
H606        H  0.31211899  0.67484465  0.21602774     0.12500
N607        N  0.26136562  0.78352380  0.19418666     0.61300
H608        H  0.26346020  0.73532857  0.16887215     0.08600
O609        O  0.39853151  0.72306185  0.12211395    -0.40200
O610        O  0.34127653  0.74640874  0.11826786    -0.39400
O611        O  0.19565893  0.58294071  0.17802515    -0.39400
O612        O  0.21612669  0.52675376  0.16998245    -0.37100
O613        O  0.29659428  0.83024559  0.19476802    -0.38000
O614        O  0.21519708  0.77231630  0.19217386    -0.34100
O615        O  0.34831096  0.63126772  0.18014692    -0.35600
O616        O  0.30529499  0.59595003  0.20129638    -0.39800
C617        C  0.25103518  0.55763616  0.98660789    -0.13500
C618        C  0.25980616  0.51936865  0.99277884     0.16800
C619        C  0.26984538  0.48863899  0.98247724     0.03100
C620        C  0.27278042  0.49841029  0.96633506    -0.12000
C621        C  0.26566684  0.53799484  0.96026853    -0.03100
C622        C  0.25368322  0.56705169  0.97058334     0.02400
C623        C  0.26249374  0.51610436  0.01005303     0.09200
N624        N  0.27799444  0.44825366  0.98821044     0.65600
H625        H  0.28229204  0.47614296  0.95853895     0.18500
N626        N  0.24429971  0.60654943  0.96492912     0.76000
H627        H  0.24315445  0.58123827  0.99436419     0.10000
C628        C  0.30965152  0.53141839  0.01787172     0.03700
C629        C  0.31191216  0.53564431  0.03419176    -0.05000
C630        C  0.26823540  0.52513638  0.04290551    -0.23400
C631        C  0.22073309  0.50712883  0.03517783     0.12900
C632        C  0.21819168  0.50261582  0.01890529    -0.12600
N633        N  0.35616209  0.54578520  0.00944719     0.64600
H634        H  0.34865509  0.55008804  0.04003886     0.12500
N635        N  0.17566563  0.49736044  0.04357536     0.61300
H636        H  0.18193109  0.49102034  0.01307445     0.08600
O637        O  0.26965762  0.65180496  0.97028288    -0.40200
O638        O  0.20808366  0.59537960  0.95541348    -0.39400
O639        O  0.25035062  0.41908421  0.99902793    -0.39400
O640        O  0.31039135  0.43925418  0.98175264    -0.37100
O641        O  0.17182254  0.53468875  0.04871063    -0.38000
O642        O  0.13686405  0.45245522  0.04381385    -0.34100
O643        O  0.36976248  0.57767490  0.99839761    -0.35600
O644        O  0.38656772  0.53101210  0.01412049    -0.39800
C645        C  0.98300975  0.52295565  0.91689218    -0.13500
C646        C  0.02246750  0.56953835  0.91083248     0.16800
C647        C  0.01065993  0.60640908  0.90517254     0.03100
C648        C  0.95986996  0.59657019  0.90590793    -0.12000
C649        C  0.91979871  0.54982893  0.91198565    -0.03100
C650        C  0.93202211  0.51275558  0.91751277     0.02400
C651        C  0.07576572  0.57879271  0.91048370     0.09200
N652        N  0.04961120  0.65336988  0.89827477     0.65600
H653        H  0.95181921  0.62561105  0.90148047     0.18500
N654        N  0.89356318  0.46498300  0.92405394     0.76000
H655        H  0.99196877  0.49445815  0.92126271     0.10000
C656        C  0.11462414  0.61447390  0.92054774     0.03700
C657        C  0.16438769  0.62098209  0.91989346    -0.05000
C658        C  0.17562126  0.59157134  0.90962711    -0.23400
C659        C  0.13715406  0.55793529  0.89903918     0.12900
C660        C  0.08764040  0.55144520  0.89972198    -0.12600
N661        N  0.10341079  0.64198699  0.93205519     0.64600
H662        H  0.19324729  0.64644060  0.92815463     0.12500
N663        N  0.14790766  0.53044462  0.88742259     0.61300
H664        H  0.05826145  0.52516729  0.89171152     0.08600
O665        O  0.89095576  0.45910107  0.93859774    -0.40200
O666        O  0.86871886  0.42624768  0.91536359    -0.39400
O667        O  0.06987020  0.65201443  0.88559045    -0.39400
O668        O  0.05926737  0.69629164  0.90381630    -0.37100
O669        O  0.11806704  0.48255614  0.88563160    -0.38000
O670        O  0.18462456  0.55474788  0.87804232    -0.34100
O671        O  0.06554617  0.61789038  0.94106886    -0.35600
O672        O  0.13462130  0.68928309  0.93443087    -0.39800
C673        C  0.56428646  0.51138839  0.93285404    -0.13500
C674        C  0.55300934  0.53543193  0.92063186     0.16800
C675        C  0.58494549  0.55262453  0.90745064     0.03100
C676        C  0.62939841  0.54880118  0.90707220    -0.12000
C677        C  0.64185034  0.52657539  0.91947817    -0.03100
C678        C  0.60872625  0.50693368  0.93236993     0.02400
C679        C  0.50987448  0.54562911  0.92210338     0.09200
N680        N  0.57250525  0.57366123  0.89428147     0.65600
H681        H  0.65390757  0.56284303  0.89715074     0.18500
N682        N  0.62155294  0.48615713  0.94550366     0.76000
H683        H  0.54028804  0.49861763  0.94294391     0.10000
C684        C  0.45881138  0.50512623  0.92383881     0.03700
C685        C  0.41870051  0.51609134  0.92398417    -0.05000
C686        C  0.42842792  0.56693656  0.92210693    -0.23400
C687        C  0.47987249  0.60771845  0.92124709     0.12900
C688        C  0.52011975  0.59680378  0.92128623    -0.12600
N689        N  0.44680165  0.45248772  0.92450590     0.64600
H690        H  0.37959873  0.48433798  0.92487683     0.12500
N691        N  0.49185308  0.65998341  0.91946066     0.61300
H692        H  0.55933057  0.62813403  0.92022224     0.08600
O693        O  0.58907511  0.44239654  0.95076708    -0.40200
O694        O  0.66291858  0.51381872  0.95289494    -0.39400
O695        O  0.60625797  0.61577822  0.88839796    -0.39400
O696        O  0.52932863  0.54778566  0.88762611    -0.37100
O697        O  0.50371706  0.68894842  0.93120467    -0.38000
O698        O  0.49682858  0.67887941  0.90604461    -0.34100
O699        O  0.42089714  0.42415303  0.93569132    -0.35600
O700        O  0.45813699  0.43303858  0.91327346    -0.39800
C701        C  0.69419046  0.48818514  0.84682660    -0.13500
C702        C  0.68023735  0.43701096  0.84323917     0.16800
C703        C  0.69292768  0.40930111  0.85390782     0.03100
C704        C  0.71889411  0.43284528  0.86780104    -0.12000
C705        C  0.73234364  0.48384465  0.87161105    -0.03100
C706        C  0.72008218  0.51172116  0.86078954     0.02400
C707        C  0.65640049  0.41420039  0.82782296     0.09200
N708        N  0.67803925  0.35648632  0.85104160     0.65600
H709        H  0.72718651  0.41033932  0.87589886     0.18500
N710        N  0.73222796  0.56342511  0.86394640     0.76000
H711        H  0.68548282  0.51020881  0.83865959     0.10000
C712        C  0.60754714  0.40596281  0.82329511     0.03700
C713        C  0.58664017  0.38401870  0.80868080    -0.05000
C714        C  0.61408997  0.37082800  0.79818952    -0.23400
C715        C  0.66345068  0.37989061  0.80273769     0.12900
C716        C  0.68356885  0.40065133  0.81743938    -0.12600
N717        N  0.57836679  0.41893808  0.83352358     0.64600
H718        H  0.54915764  0.37804200  0.80544094     0.12500
N719        N  0.69377604  0.36785305  0.79266673     0.61300
H720        H  0.72122027  0.40705713  0.82068099     0.08600
O721        O  0.69679496  0.57237275  0.86763570    -0.40200
O722        O  0.77635531  0.60052747  0.86063283    -0.39400
O723        O  0.71022210  0.34151169  0.85285779    -0.39400
O724        O  0.63168166  0.32385839  0.84791213    -0.37100
O725        O  0.72223331  0.40051505  0.78265601    -0.38000
O726        O  0.70188612  0.33173733  0.79627914    -0.34100
O727        O  0.57092092  0.45569417  0.83019462    -0.35600
O728        O  0.55618207  0.39084632  0.84514432    -0.39800
C729        C  0.70432092  0.39819914  0.15168788    -0.13500
C730        C  0.74297994  0.42757001  0.16259201     0.16800
C731        C  0.78196143  0.47786750  0.15838910     0.03100
C732        C  0.78178363  0.49748221  0.14350400    -0.12000
C733        C  0.74329052  0.46796178  0.13250791    -0.03100
C734        C  0.70411696  0.41764059  0.13684008     0.02400
C735        C  0.74323620  0.40411690  0.17797523     0.09200
N736        N  0.82178791  0.50972142  0.16916937     0.65600
H737        H  0.81235272  0.53578448  0.14048286     0.18500
N738        N  0.66373585  0.38537637  0.12630023     0.76000
H739        H  0.67448571  0.35944572  0.15462001     0.10000
C740        C  0.70068306  0.38483534  0.18817422     0.03700
C741        C  0.70201000  0.36241787  0.20242301    -0.05000
C742        C  0.74498938  0.35829633  0.20685123    -0.23400
C743        C  0.78689519  0.37629143  0.19645485     0.12900
C744        C  0.78572022  0.39888887  0.18222039    -0.12600
N745        N  0.65633211  0.38892959  0.18442680     0.64600
H746        H  0.66946545  0.34880914  0.21018330     0.12500
N747        N  0.83196378  0.37403138  0.20046158     0.61300
H748        H  0.81827839  0.41262378  0.17446382     0.08600
O749        O  0.62204869  0.38608108  0.12635542    -0.40200
O750        O  0.66606603  0.34997131  0.11909273    -0.39400
O751        O  0.86853586  0.52981232  0.16532286    -0.39400
O752        O  0.81031752  0.52071920  0.18214738    -0.37100
O753        O  0.83992010  0.34055383  0.19425843    -0.38000
O754        O  0.86652047  0.40897579  0.20879913    -0.34100
O755        O  0.61193524  0.34938248  0.18478753    -0.35600
O756        O  0.66104244  0.43258433  0.18189785    -0.39800
C757        C  0.07884297  0.58218641  0.07874965    -0.13500
C758        C  0.03824877  0.53310434  0.08289101     0.16800
C759        C  0.04860658  0.49353460  0.08642984     0.03100
C760        C  0.09942144  0.50396232  0.08625486    -0.12000
C761        C  0.14088359  0.55380863  0.08293273    -0.03100
C762        C  0.12998134  0.59279109  0.07861128     0.02400
C763        C  0.98567650  0.52474139  0.08431723     0.09200
N764        N  0.00837464  0.44352765  0.09117857     0.65600
H765        H  0.10632619  0.47301697  0.08940028     0.18500
N766        N  0.16995398  0.64309393  0.07411501     0.76000
H767        H  0.07071734  0.61245247  0.07576059     0.10000
C768        C  0.97559785  0.55339415  0.09519183     0.03700
C769        C  0.92691789  0.54828920  0.09567130    -0.05000
C770        C  0.88725178  0.51433833  0.08562512    -0.23400
C771        C  0.89660669  0.48377520  0.07517070     0.12900
C772        C  0.94585378  0.48914237  0.07462368    -0.12600
N773        N  0.01434983  0.58731838  0.10597326     0.64600
H774        H  0.92007508  0.57094728  0.10408698     0.12500
N775        N  0.85782731  0.44965234  0.06448106     0.61300
H776        H  0.95359060  0.46696645  0.06627604     0.08600
O777        O  0.17798991  0.68200324  0.08195819    -0.40200
O778        O  0.19126969  0.64942621  0.06104651    -0.39400
O779        O  0.00301937  0.40360599  0.08453511    -0.39400
O780        O  0.98181284  0.43892025  0.10305354    -0.37100
O781        O  0.84398235  0.46782471  0.05346180    -0.38000
O782        O  0.84196389  0.40189069  0.06492691    -0.34100
O783        O  0.02514947  0.63365871  0.10717674    -0.35600
O784        O  0.03505012  0.57003061  0.11511775    -0.39800
C785        C  0.51045842  0.61179198  0.09093904    -0.13500
C786        C  0.50514177  0.56337888  0.08756088     0.16800
C787        C  0.45590363  0.52106792  0.08439630     0.03100
C788        C  0.41287886  0.52710020  0.08532936    -0.12000
C789        C  0.41761995  0.57501477  0.08897072    -0.03100
C790        C  0.46703713  0.61798302  0.09164958     0.02400
C791        C  0.55041987  0.55613512  0.08836847     0.09200
N792        N  0.44908898  0.47191843  0.07992115     0.65600
H793        H  0.37545700  0.49416404  0.08276124     0.18500
N794        N  0.47350634  0.66699951  0.09598463     0.76000
H795        H  0.54807290  0.64421539  0.09360290     0.10000
C796        C  0.59491645  0.58642009  0.07943056     0.03700
C797        C  0.63658414  0.57786646  0.08052848    -0.05000
C798        C  0.63397930  0.53856075  0.09003604    -0.23400
C799        C  0.59007171  0.50884525  0.09918399     0.12900
C800        C  0.54865560  0.51790816  0.09828859    -0.12600
N801        N  0.59742576  0.62420622  0.06870203     0.64600
H802        H  0.67038624  0.60065516  0.07349003     0.12500
N803        N  0.58814573  0.47143407  0.10995915     0.61300
H804        H  0.51525797  0.49561545  0.10551173     0.08600
O805        O  0.50536341  0.70729689  0.08883646    -0.40200
O806        O  0.45204852  0.67087463  0.10808403    -0.39400
O807        O  0.41448384  0.43110066  0.08621068    -0.39400
O808        O  0.47523454  0.46889413  0.06893914    -0.37100
O809        O  0.62393575  0.48426925  0.11976934    -0.38000
O810        O  0.54816993  0.42746612  0.11088124    -0.34100
O811        O  0.63619171  0.66916031  0.06864122    -0.35600
O812        O  0.56322250  0.61142434  0.05835067    -0.39800
C813        C  0.81445507  0.55199511  0.98760081    -0.13500
C814        C  0.79707659  0.58398836  0.99358012     0.16800
C815        C  0.78638515  0.61392568  0.98323852     0.03100
C816        C  0.79123389  0.60987687  0.96709204    -0.12000
C817        C  0.80614823  0.57572785  0.96106071    -0.03100
C818        C  0.81940324  0.54786503  0.97155149     0.02400
C819        C  0.78652319  0.58163563  0.01053031     0.09200
N820        N  0.76752831  0.64606783  0.98892396     0.65600
H821        H  0.78007314  0.63085030  0.95926281     0.18500
N822        N  0.83777375  0.51497325  0.96603417     0.76000
H823        H  0.82331707  0.52930967  0.99547191     0.10000
C824        C  0.74080096  0.54047800  0.01659685     0.03700
C825        C  0.73478689  0.53271992  0.03267895    -0.05000
C826        C  0.77387882  0.56542524  0.04311543    -0.23400
C827        C  0.81858145  0.60857519  0.03705608     0.12900
C828        C  0.82454095  0.61629882  0.02085308    -0.12600
N829        N  0.70091193  0.50491411  0.00646216     0.64600
H830        H  0.69979933  0.49986211  0.03699089     0.12500
N831        N  0.85989320  0.64257096  0.04705756     0.61300
H832        H  0.86004465  0.64784513  0.01630282     0.08600
O833        O  0.81727039  0.46887478  0.97067836    -0.40200
O834        O  0.87756812  0.53337828  0.95765407    -0.39400
O835        O  0.79777383  0.69402525  0.99027064    -0.39400
O836        O  0.71976003  0.62754891  0.99088689    -0.37100
O837        O  0.88996098  0.62864502  0.05262132    -0.38000
O838        O  0.86983673  0.68843217  0.04891145    -0.34100
O839        O  0.70153005  0.46553441  0.00159931    -0.35600
O840        O  0.66250193  0.51013281  0.00361702    -0.39800
loop_ 
_geom_bond_atom_site_label_1 
_geom_bond_atom_site_label_2 
_geom_bond_distance 
_geom_bond_site_symmetry_2 
_ccdc_geom_bond_type 
O1           Ni9   1.934       .  S
O1           C11   1.285       .  A
O2           Ni9   1.931       .  S
O2           C12   1.285       .  A
O3           Ni9   1.910       .  S
O3           C13   1.280       .  A
O4           Ni9   1.912       .  S
O4           C14   1.278       .  A
O5          Ni10   1.949       .  S
O5           C14   1.289       .  A
O6          Ni10   1.945       .  S
O6           C13   1.287       .  A
O7          Ni10   1.893       .  S
O7           C12   1.274       .  A
O8          Ni10   1.882       .  S
O8           C11   1.275       .  A
Ni9         Ni10   2.386       .  S
C11         C770   1.474       .  S
C12         C798   1.465       .  S
C13         C826   1.494       .  S
C14         C733   1.501       .  S
O15         Ni23   1.931       .  S
O15          C25   1.284       .  A
O16         Ni23   1.930       .  S
O16          C26   1.284       .  A
O17         Ni23   1.908       .  S
O17          C27   1.279       .  A
O18         Ni23   1.916       .  S
O18          C28   1.281       .  A
O19         Ni24   1.946       .  S
O19          C28   1.288       .  A
O20         Ni24   1.946       .  S
O20          C27   1.287       .  A
O21         Ni24   1.905       .  S
O21          C26   1.279       .  A
O22         Ni24   1.889       .  S
O22          C25   1.275       .  A
Ni23        Ni24   2.384       .  S
C25         C677   1.467       .  S
C26         C649   1.491       .  S
C27         C817   1.490       .  S
C28         C705   1.502       .  S
O29         Ni37   1.937       .  S
O29          C39   1.286       .  A
O30         Ni37   1.936       .  S
O30          C40   1.285       .  A
O31         Ni37   1.913       .  S
O31          C41   1.279       .  A
O32         Ni37   1.918       .  S
O32          C42   1.280       .  A
O33         Ni38   1.945       .  S
O33          C42   1.288       .  A
O34         Ni38   1.944       .  S
O34          C41   1.286       .  A
O35         Ni38   1.888       .  S
O35          C40   1.275       .  A
O36         Ni38   1.881       .  S
O36          C39   1.274       .  A
Ni37        Ni38   2.384       .  S
C39         C761   1.484       .  S
C40         C789   1.477       .  S
C41         C630   1.483       .  S
C42         C593   1.505       .  S
O43         Ni51   1.934       .  S
O43          C53   1.285       .  A
O44         Ni51   1.933       .  S
O44          C54   1.285       .  A
O45         Ni51   1.912       .  S
O45          C55   1.280       .  A
O46         Ni51   1.915       .  S
O46          C56   1.280       .  A
O47         Ni52   1.944       .  S
O47          C56   1.287       .  A
O48         Ni52   1.943       .  S
O48          C55   1.286       .  A
O49         Ni52   1.902       .  S
O49          C54   1.278       .  A
O50         Ni52   1.891       .  S
O50          C53   1.276       .  A
Ni51        Ni52   2.385       .  S
C53         C686   1.480       .  S
C54         C658   1.484       .  S
C55         C621   1.490       .  S
C56         C574   1.494       .  S
O57         Ni65   1.933       .  S
O57          C67   1.286       .  A
O58         Ni65   1.929       .  S
O58          C68   1.284       .  A
O59         Ni65   1.910       .  S
O59          C69   1.279       .  A
O60         Ni65   1.912       .  S
O60          C70   1.278       .  A
O61         Ni66   1.949       .  S
O61          C70   1.289       .  A
O62         Ni66   1.944       .  S
O62          C69   1.287       .  A
O63         Ni66   1.898       .  S
O63          C68   1.276       .  A
O64         Ni66   1.888       .  S
O64          C67   1.273       .  A
Ni65        Ni66   2.385       .  S
C67         C509   1.484       .  S
C68         C490   1.469       .  S
C69         C537   1.488       .  S
C70         C714   1.498       .  S
O71         Ni79   1.928       .  S
O71          C81   1.285       .  A
O72         Ni79   1.926       .  S
O72          C82   1.283       .  A
O73         Ni79   1.913       .  S
O73          C83   1.279       .  A
O74         Ni79   1.919       .  S
O74          C84   1.281       .  A
O75         Ni80   1.940       .  S
O75          C84   1.286       .  A
O76         Ni80   1.939       .  S
O76          C83   1.285       .  A
O77         Ni80   1.907       .  S
O77          C82   1.280       .  A
O78         Ni80   1.892       .  S
O78          C81   1.276       .  A
Ni79        Ni80   2.385       .  S
C81         C397   1.477       .  S
C82         C434   1.488       .  S
C83         C546   1.481       .  S
C84         C462   1.493       .  S
O85         Ni93   1.932       .  S
O85          C95   1.284       .  A
O86         Ni93   1.930       .  S
O86          C96   1.285       .  A
O87         Ni93   1.906       .  S
O87          C97   1.279       .  A
O88         Ni93   1.908       .  S
O88          C98   1.280       .  A
O89         Ni94   1.950       .  S
O89          C98   1.288       .  A
O90         Ni94   1.950       .  S
O90          C97   1.288       .  A
O91         Ni94   1.898       .  S
O91          C96   1.276       .  A
O92         Ni94   1.887       .  S
O92          C95   1.275       .  A
Ni93        Ni94   2.384       .  S
C95         C518   1.472       .  S
C96         C481   1.475       .  S
C97         C369   1.498       .  S
C98         C565   1.506       .  S
O99        Ni107   1.922       .  S
O99         C109   1.281       .  A
O100       Ni107   1.921       .  S
O100        C110   1.282       .  A
O101       Ni107   1.916       .  S
O101        C111   1.281       .  A
O102       Ni107   1.924       .  S
O102        C112   1.283       .  A
O103       Ni108   1.934       .  S
O103        C112   1.285       .  A
O104       Ni108   1.943       .  S
O104        C111   1.286       .  A
O105       Ni108   1.911       .  S
O105        C110   1.280       .  A
O106       Ni108   1.899       .  S
O106        C109   1.277       .  A
Ni107      Ni108   2.387       .  S
C109        C406   1.463       .  S
C110        C425   1.475       .  S
C111        C378   1.490       .  S
C112        C341   1.504       .  S
O113       Ni121   1.929       .  S
O113        C123   1.283       .  A
O114       Ni121   1.932       .  S
O114        C124   1.283       .  A
O115       Ni121   1.913       .  S
O115        C125   1.279       .  A
O116       Ni121   1.922       .  S
O116        C126   1.283       .  A
O117       Ni122   1.938       .  S
O117        C126   1.286       .  A
O118       Ni122   1.941       .  S
O118        C125   1.286       .  A
O119       Ni122   1.910       .  S
O119        C124   1.280       .  A
O120       Ni122   1.895       .  S
O120        C123   1.276       .  A
Ni121      Ni122   2.385       .  S
C123        C294   1.466       .  S
C124        C257   1.489       .  S
C125        C322   1.485       .  S
C126        C602   1.504       .  S
O127       Ni135   1.933       .  S
O127        C137   1.284       .  A
O128       Ni135   1.929       .  S
O128        C138   1.284       .  A
O129       Ni135   1.913       .  S
O129        C139   1.279       .  A
O130       Ni135   1.916       .  S
O130        C140   1.280       .  A
O131       Ni136   1.942       .  S
O131        C140   1.287       .  A
O132       Ni136   1.941       .  S
O132        C139   1.286       .  A
O133       Ni136   1.896       .  S
O133        C138   1.277       .  A
O134       Ni136   1.890       .  S
O134        C137   1.277       .  A
Ni135      Ni136   2.383       .  S
C137        C210   1.483       .  S
C138        C238   1.480       .  S
C139        C313   1.485       .  S
C140        C350   1.504       .  S
O141       Ni149   1.932       .  S
O141        C151   1.284       .  A
O142       Ni149   1.928       .  S
O142        C152   1.284       .  A
O143       Ni149   1.916       .  S
O143        C153   1.281       .  A
O144       Ni149   1.922       .  S
O144        C154   1.282       .  A
O145       Ni150   1.940       .  S
O145        C154   1.286       .  A
O146       Ni150   1.939       .  S
O146        C153   1.285       .  A
O147       Ni150   1.909       .  S
O147        C152   1.279       .  A
O148       Ni150   1.895       .  S
O148        C151   1.277       .  A
Ni149      Ni150   2.387       .  S
C151        C285   1.473       .  S
C152        C266   1.480       .  S
C153        C173   1.484       .  S
C154        C742   1.496       .  S
O155       Ni163   1.935       .  S
O155        C165   1.286       .  A
O156       Ni163   1.934       .  S
O156        C166   1.286       .  A
O157       Ni163   1.897       .  S
O157        C167   1.277       .  A
O158       Ni163   1.906       .  S
O158        C168   1.278       .  A
O159       Ni164   1.953       .  S
O159        C168   1.290       .  A
O160       Ni164   1.953       .  S
O160        C167   1.289       .  A
O161       Ni164   1.891       .  S
O161        C166   1.276       .  A
O162       Ni164   1.884       .  S
O162        C165   1.274       .  A
Ni163      Ni164   2.383       .  S
C165        C201   1.473       .  S
C166        C229   1.484       .  S
C167        C182   1.497       .  S
C168        C453   1.498       .  S
C169        C170   1.403       .  A
C169        C174   1.405       .  A
C169        H179   1.082       .  S
C170        C175   1.488       .  S
C170        C171   1.411       .  A
C171        C172   1.409       .  A
C171        N176   1.431       .  S
C172        C173   1.406       .  A
C172        H177   1.083       .  S
C173        C174   1.411       .  A
C174        N178   1.433       .  S
C175        C180   1.404       .  A
C175        C184   1.407       .  A
N176        O191   1.262       .  A
N176        O192   1.262       .  A
N178        O189   1.262       .  A
N178        O190   1.262       .  A
C180        C181   1.397       .  A
C180        N185   1.430       .  S
C181        C182   1.410       .  A
C181        H186   1.083       .  S
C182        C183   1.416       .  A
C183        C184   1.413       .  A
C183        N187   1.429       .  S
C184        H188   1.082       .  S
N185        O195   1.262       .  A
N185        O196   1.262       .  A
N187        O193   1.262       .  A
N187        O194   1.262       .  A
C197        C198   1.406       .  A
C197        C202   1.404       .  A
C197        H207   1.081       .  S
C198        C203   1.478       .  S
C198        C199   1.408       .  A
C199        C200   1.394       .  A
C199        N204   1.434       .  S
C200        C201   1.405       .  A
C200        H205   1.082       .  S
C201        C202   1.410       .  A
C202        N206   1.432       .  S
C203        C208   1.405       .  A
C203        C212   1.407   1_545  A
N204        O219   1.262       .  A
N204        O220   1.262       .  A
N206        O217   1.262       .  A
N206        O218   1.263       .  A
C208        C209   1.394   1_545  A
C208        N213   1.433       .  S
C209        C210   1.409       .  A
C209        H214   1.081       .  S
C210        C211   1.411       .  A
C211        C212   1.403       .  A
C211        N215   1.430       .  S
C212        H216   1.081       .  S
N213        O223   1.262       .  A
N213        O224   1.262       .  A
N215        O221   1.262       .  A
N215        O222   1.262       .  A
C225        C226   1.402       .  A
C225        C230   1.402       .  A
C225        H235   1.083       .  S
C226        C231   1.473   1_655  S
C226        C227   1.403       .  A
C227        C228   1.395       .  A
C227        N232   1.431   1_655  S
C228        C229   1.410       .  A
C228        H233   1.083       .  S
C229        C230   1.412       .  A
C230        N234   1.428       .  S
C231        C236   1.411       .  A
C231        C240   1.397       .  A
N232        O247   1.262       .  A
N232        O248   1.262       .  A
N234        O245   1.262       .  A
N234        O246   1.262       .  A
C236        C237   1.403       .  A
C236        N241   1.434       .  S
C237        C238   1.405       .  A
C237        H242   1.082       .  S
C238        C239   1.417       .  A
C239        C240   1.398       .  A
C239        N243   1.432       .  S
C240        H244   1.083       .  S
N241        O251   1.262       .  A
N241        O252   1.262       .  A
N243        O249   1.262       .  A
N243        O250   1.262       .  A
C253        C254   1.403   1_565  A
C253        C258   1.407       .  A
C253        H263   1.081       .  S
C254        C259   1.483       .  S
C254        C255   1.406   1_545  A
C255        C256   1.401       .  A
C255        N260   1.431   1_565  S
C256        C257   1.409       .  A
C256        H261   1.082       .  S
C257        C258   1.418       .  A
C258        N262   1.434       .  S
C259        C264   1.409       .  A
C259        C268   1.403       .  A
N260        O275   1.262       .  A
N260        O276   1.262       .  A
N262        O273   1.262       .  A
N262        O274   1.262       .  A
C264        C265   1.403       .  A
C264        N269   1.429       .  S
C265        C266   1.404       .  A
C265        H270   1.081       .  S
C266        C267   1.412       .  A
C267        C268   1.402       .  A
C267        N271   1.430       .  S
C268        H272   1.081       .  S
N269        O279   1.262       .  A
N269        O280   1.262       .  A
N271        O277   1.262       .  A
N271        O278   1.262       .  A
C281        C282   1.408       .  A
C281        C286   1.401       .  A
C281        H291   1.082       .  S
C282        C287   1.481   1_655  S
C282        C283   1.409       .  A
C283        C284   1.398       .  A
C283        N288   1.433   1_655  S
C284        C285   1.405       .  A
C284        H289   1.082       .  S
C285        C286   1.406       .  A
C286        N290   1.429       .  S
C287        C292   1.412       .  A
C287        C296   1.407       .  A
N288        O303   1.262       .  A
N288        O304   1.262       .  A
N290        O301   1.262       .  A
N290        O302   1.262       .  A
C292        C293   1.397       .  A
C292        N297   1.436       .  S
C293        C294   1.401       .  A
C293        H298   1.082       .  S
C294        C295   1.407       .  A
C295        C296   1.402       .  A
C295        N299   1.429       .  S
C296        H300   1.082       .  S
N297        O307   1.262       .  A
N297        O308   1.263       .  A
N299        O305   1.261       .  A
N299        O306   1.262       .  A
C309        C310   1.405       .  A
C309        C314   1.406       .  A
C309        H319   1.080       .  S
C310        C315   1.491       .  S
C310        C311   1.414       .  A
C311        C312   1.407       .  A
C311        N316   1.434       .  S
C312        C313   1.405       .  A
C312        H317   1.080       .  S
C313        C314   1.411       .  A
C314        N318   1.430       .  S
C315        C320   1.415       .  A
C315        C324   1.403       .  A
N316        O331   1.262       .  A
N316        O332   1.262       .  A
N318        O329   1.262       .  A
N318        O330   1.261       .  A
C320        C321   1.412       .  A
C320        N325   1.435       .  S
C321        C322   1.406       .  A
C321        H326   1.083       .  S
C322        C323   1.409       .  A
C323        C324   1.401       .  A
C323        N327   1.428       .  S
C324        H328   1.084       .  S
N325        O335   1.262       .  A
N325        O336   1.263       .  A
N327        O333   1.261       .  A
N327        O334   1.262       .  A
C337        C338   1.403       .  A
C337        C342   1.409       .  A
C337        H347   1.083       .  S
C338        C343   1.493       .  S
C338        C339   1.409       .  A
C339        C340   1.406       .  A
C339        N344   1.432       .  S
C340        C341   1.411       .  A
C340        H345   1.082       .  S
C341        C342   1.420       .  A
C342        N346   1.429       .  S
C343        C348   1.413       .  A
C343        C352   1.400       .  A
N344        O359   1.262       .  A
N344        O360   1.262       .  A
N346        O357   1.262       .  A
N346        O358   1.262       .  A
C348        C349   1.410       .  A
C348        N353   1.434       .  S
C349        C350   1.409       .  A
C349        H354   1.082       .  S
C350        C351   1.421       .  A
C351        C352   1.405       .  A
C351        N355   1.429       .  S
C352        H356   1.083       .  S
N353        O363   1.262       .  A
N353        O364   1.262       .  A
N355        O361   1.262       .  A
N355        O362   1.262       .  A
C365        C366   1.407       .  A
C365        C370   1.413       .  A
C365        H375   1.082       .  S
C366        C371   1.491       .  S
C366        C367   1.406       .  A
C367        C368   1.400       .  A
C367        N372   1.430       .  S
C368        C369   1.409       .  A
C368        H373   1.083       .  S
C369        C370   1.416       .  A
C370        N374   1.428       .  S
C371        C376   1.411       .  A
C371        C380   1.402       .  A
N372        O387   1.262       .  A
N372        O388   1.262       .  A
N374        O385   1.262       .  A
N374        O386   1.262       .  A
C376        C377   1.411       .  A
C376        N381   1.429       .  S
C377        C378   1.408       .  A
C377        H382   1.082       .  S
C378        C379   1.413       .  A
C379        C380   1.404       .  A
C379        N383   1.432       .  S
C380        H384   1.083       .  S
N381        O391   1.262       .  A
N381        O392   1.262       .  A
N383        O389   1.262       .  A
N383        O390   1.262       .  A
C393        C394   1.396       .  A
C393        C398   1.394       .  A
C393        H403   1.083       .  S
C394        C399   1.470       .  S
C394        C395   1.407       .  A
C395        C396   1.401       .  A
C395        N400   1.430       .  S
C396        C397   1.404       .  A
C396        H401   1.082       .  S
C397        C398   1.417       .  A
C398        N402   1.430       .  S
C399        C404   1.408   1_545  A
C399        C408   1.400       .  A
N400        O415   1.262       .  A
N400        O416   1.262       .  A
N402        O413   1.261       .  A
N402        O414   1.262       .  A
C404        C405   1.401       .  A
C404        N409   1.432       .  S
C405        C406   1.402       .  A
C405        H410   1.082       .  S
C406        C407   1.411       .  A
C407        C408   1.398   1_565  A
C407        N411   1.437       .  S
C408        H412   1.082       .  S
N409        O419   1.262       .  A
N409        O420   1.262   1_565  A
N411        O417   1.263       .  A
N411        O418   1.262       .  A
C421        C422   1.401       .  A
C421        C426   1.402       .  A
C421        H431   1.081       .  S
C422        C427   1.476       .  S
C422        C423   1.406       .  A
C423        C424   1.400       .  A
C423        N428   1.428       .  S
C424        C425   1.404       .  A
C424        H429   1.080       .  S
C425        C426   1.412       .  A
C426        N430   1.431       .  S
C427        C432   1.404       .  A
C427        C436   1.401       .  A
N428        O443   1.262       .  A
N428        O444   1.261       .  A
N430        O441   1.262       .  A
N430        O442   1.262       .  A
C432        C433   1.398       .  A
C432        N437   1.431       .  S
C433        C434   1.409       .  A
C433        H438   1.082       .  S
C434        C435   1.417       .  A
C435        C436   1.405       .  A
C435        N439   1.432       .  S
C436        H440   1.082       .  S
N437        O447   1.262       .  A
N437        O448   1.262       .  A
N439        O445   1.262       .  A
N439        O446   1.262       .  A
C449        C450   1.403       .  A
C449        C454   1.405       .  A
C449        H459   1.080       .  S
C450        C455   1.502       .  S
C450        C451   1.417       .  A
C451        C452   1.413       .  A
C451        N456   1.433       .  S
C452        C453   1.406       .  A
C452        H457   1.080       .  S
C453        C454   1.419       .  A
C454        N458   1.432       .  S
C455        C460   1.416       .  A
C455        C464   1.408       .  A
N456        O471   1.262       .  A
N456        O472   1.262       .  A
N458        O469   1.262       .  A
N458        O470   1.262       .  A
C460        C461   1.408       .  A
C460        N465   1.433       .  S
C461        C462   1.406       .  A
C461        H466   1.081       .  S
C462        C463   1.413       .  A
C463        C464   1.409       .  A
C463        N467   1.430       .  S
C464        H468   1.080       .  S
N465        O475   1.262       .  A
N465        O476   1.262       .  A
N467        O473   1.262       .  A
N467        O474   1.262       .  A
C477        C478   1.407   1_565  A
C477        C482   1.404       .  A
C477        H487   1.080   1_565  S
C478        C483   1.482       .  S
C478        C479   1.410       .  A
C479        C480   1.399   1_545  A
C479        N484   1.436       .  S
C480        C481   1.406       .  A
C480        H485   1.081       .  S
C481        C482   1.410       .  A
C482        N486   1.435       .  S
C483        C488   1.411       .  A
C483        C492   1.408       .  A
N484        O499   1.262       .  A
N484        O500   1.263       .  A
N486        O497   1.262       .  A
N486        O498   1.263       .  A
C488        C489   1.398       .  A
C488        N493   1.435       .  S
C489        C490   1.403       .  A
C489        H494   1.081       .  S
C490        C491   1.405       .  A
C491        C492   1.402       .  A
C491        N495   1.428       .  S
C492        H496   1.081       .  S
N493        O503   1.262       .  A
N493        O504   1.263       .  A
N495        O501   1.262       .  A
N495        O502   1.262       .  A
C505        C506   1.397       .  A
C505        C510   1.395       .  A
C505        H515   1.082       .  S
C506        C511   1.476       .  S
C506        C507   1.411       .  A
C507        C508   1.402       .  A
C507        N512   1.434       .  S
C508        C509   1.405       .  A
C508        H513   1.081       .  S
C509        C510   1.422       .  A
C510        N514   1.432       .  S
C511        C516   1.412       .  A
C511        C520   1.399       .  A
N512        O527   1.262       .  A
N512        O528   1.262       .  A
N514        O525   1.262       .  A
N514        O526   1.262       .  A
C516        C517   1.405       .  A
C516        N521   1.432       .  S
C517        C518   1.403       .  A
C517        H522   1.081       .  S
C518        C519   1.412       .  A
C519        C520   1.392       .  A
C519        N523   1.431       .  S
C520        H524   1.082       .  S
N521        O531   1.262       .  A
N521        O532   1.262       .  A
N523        O529   1.262       .  A
N523        O530   1.262       .  A
C533        C534   1.406       .  A
C533        C538   1.407       .  A
C533        H543   1.083       .  S
C534        C539   1.493       .  S
C534        C535   1.416       .  A
C535        C536   1.406       .  A
C535        N540   1.437       .  S
C536        C537   1.405       .  A
C536        H541   1.083       .  S
C537        C538   1.410       .  A
C538        N542   1.427       .  S
C539        C544   1.415       .  A
C539        C548   1.405       .  A
N540        O555   1.262       .  A
N540        O556   1.262       .  A
N542        O553   1.262       .  A
N542        O554   1.262       .  A
C544        C545   1.410       .  A
C544        N549   1.437       .  S
C545        C546   1.405       .  A
C545        H550   1.077       .  S
C546        C547   1.411       .  A
C547        C548   1.407       .  A
C547        N551   1.435       .  S
C548        H552   1.081       .  S
N549        O559   1.262       .  A
N549        O560   1.263       .  A
N551        O557   1.263       .  A
N551        O558   1.262       .  A
C561        C562   1.405       .  A
C561        C566   1.414       .  A
C561        H571   1.082       .  S
C562        C567   1.494       .  S
C562        C563   1.406       .  A
C563        C564   1.403       .  A
C563        N568   1.431       .  S
C564        C565   1.413       .  A
C564        H569   1.082       .  S
C565        C566   1.421       .  A
C566        N570   1.432       .  S
C567        C572   1.410       .  A
C567        C576   1.402       .  A
N568        O583   1.262       .  A
N568        O584   1.262       .  A
N570        O581   1.262       .  A
N570        O582   1.262       .  A
C572        C573   1.410       .  A
C572        N577   1.428       .  S
C573        C574   1.408       .  A
C573        H578   1.082       .  S
C574        C575   1.416       .  A
C575        C576   1.405       .  A
C575        N579   1.431       .  S
C576        H580   1.082       .  S
N577        O587   1.262       .  A
N577        O588   1.262       .  A
N579        O585   1.262       .  A
N579        O586   1.262       .  A
C589        C590   1.403       .  A
C589        C594   1.404       .  A
C589        H599   1.083       .  S
C590        C595   1.502       .  S
C590        C591   1.419       .  A
C591        C592   1.414       .  A
C591        N596   1.438       .  S
C592        C593   1.408       .  A
C592        H597   1.082       .  S
C593        C594   1.419       .  A
C594        N598   1.429       .  S
C595        C600   1.417       .  A
C595        C604   1.407       .  A
N596        O611   1.263       .  A
N596        O612   1.263       .  A
N598        O609   1.262       .  A
N598        O610   1.262       .  A
C600        C601   1.410       .  A
C600        N605   1.438       .  S
C601        C602   1.410       .  A
C601        H606   1.082       .  S
C602        C603   1.415       .  A
C603        C604   1.408       .  A
C603        N607   1.429       .  S
C604        H608   1.083       .  S
N605        O615   1.262       .  A
N605        O616   1.263       .  A
N607        O613   1.262       .  A
N607        O614   1.262       .  A
C617        C618   1.403       .  A
C617        C622   1.403       .  A
C617        H627   1.083       .  S
C618        C623   1.495   1_556  S
C618        C619   1.417       .  A
C619        C620   1.414       .  A
C619        N624   1.437       .  S
C620        C621   1.407       .  A
C620        H625   1.082       .  S
C621        C622   1.412       .  A
C622        N626   1.432       .  S
C623        C628   1.417       .  A
C623        C632   1.406       .  A
N624        O639   1.262       .  A
N624        O640   1.263       .  A
N626        O637   1.262       .  A
N626        O638   1.262       .  A
C628        C629   1.409       .  A
C628        N633   1.435       .  S
C629        C630   1.404       .  A
C629        H634   1.083       .  S
C630        C631   1.409       .  A
C631        C632   1.406       .  A
C631        N635   1.430       .  S
C632        H636   1.083       .  S
N633        O643   1.262   1_554  A
N633        O644   1.262       .  A
N635        O641   1.262       .  A
N635        O642   1.262       .  A
C645        C646   1.401   1_655  A
C645        C650   1.402       .  A
C645        H655   1.083       .  S
C646        C651   1.480       .  S
C646        C647   1.406       .  A
C647        C648   1.401   1_455  A
C647        N652   1.431       .  S
C648        C649   1.411       .  A
C648        H653   1.082       .  S
C649        C650   1.415       .  A
C650        N654   1.428       .  S
C651        C656   1.413       .  A
C651        C660   1.398       .  A
N652        O667   1.262       .  A
N652        O668   1.262       .  A
N654        O665   1.262       .  A
N654        O666   1.262       .  A
C656        C657   1.406       .  A
C656        N661   1.435       .  S
C657        C658   1.405       .  A
C657        H662   1.082       .  S
C658        C659   1.416       .  A
C659        C660   1.399       .  A
C659        N663   1.433       .  S
C660        H664   1.083       .  S
N661        O671   1.263       .  A
N661        O672   1.262       .  A
N663        O669   1.262       .  A
N663        O670   1.263       .  A
C673        C674   1.408       .  A
C673        C678   1.406       .  A
C673        H683   1.070       .  S
C674        C679   1.477       .  S
C674        C675   1.407       .  A
C675        C676   1.395       .  A
C675        N680   1.434       .  S
C676        C677   1.404       .  A
C676        H681   1.068       .  S
C677        C678   1.408       .  A
C678        N682   1.432       .  S
C679        C684   1.405       .  A
C679        C688   1.406       .  A
N680        O695   1.262       .  A
N680        O696   1.263       .  A
N682        O693   1.262       .  A
N682        O694   1.263       .  A
C684        C685   1.398       .  A
C684        N689   1.432       .  S
C685        C686   1.409       .  A
C685        H690   1.080       .  S
C686        C687   1.409       .  A
C687        C688   1.401       .  A
C687        N691   1.428       .  S
C688        H692   1.079       .  S
N689        O699   1.262       .  A
N689        O700   1.262       .  A
N691        O697   1.262       .  A
N691        O698   1.262       .  A
C701        C702   1.406       .  A
C701        C706   1.411       .  A
C701        H711   1.082       .  S
C702        C707   1.498       .  S
C702        C703   1.412       .  A
C703        C704   1.407       .  A
C703        N708   1.434       .  S
C704        C705   1.410       .  A
C704        H709   1.082       .  S
C705        C706   1.417       .  A
C706        N710   1.429       .  S
C707        C712   1.412       .  A
C707        C716   1.402       .  A
N708        O723   1.262       .  A
N708        O724   1.263       .  A
N710        O721   1.262       .  A
N710        O722   1.262       .  A
C712        C713   1.411       .  A
C712        N717   1.429       .  S
C713        C714   1.408       .  A
C713        H718   1.082       .  S
C714        C715   1.419       .  A
C715        C716   1.405       .  A
C715        N719   1.430       .  S
C716        H720   1.082       .  S
N717        O727   1.262       .  A
N717        O728   1.262       .  A
N719        O725   1.262       .  A
N719        O726   1.261       .  A
C729        C730   1.404       .  A
C729        C734   1.406       .  A
C729        H739   1.081       .  S
C730        C735   1.501       .  S
C730        C731   1.414       .  A
C731        C732   1.411       .  A
C731        N736   1.431       .  S
C732        C733   1.407       .  A
C732        H737   1.081       .  S
C733        C734   1.419       .  A
C734        N738   1.430       .  S
C735        C740   1.414       .  A
C735        C744   1.407       .  A
N736        O751   1.262       .  A
N736        O752   1.262       .  A
N738        O749   1.261       .  A
N738        O750   1.262       .  A
C740        C741   1.408       .  A
C740        N745   1.432       .  S
C741        C742   1.407       .  A
C741        H746   1.081       .  S
C742        C743   1.413       .  A
C743        C744   1.409       .  A
C743        N747   1.429       .  S
C744        H748   1.081       .  S
N745        O755   1.262       .  A
N745        O756   1.262       .  A
N747        O753   1.262       .  A
N747        O754   1.262       .  A
C757        C758   1.405       .  A
C757        C762   1.402       .  A
C757        H767   1.082       .  S
C758        C763   1.473   1_455  S
C758        C759   1.402       .  A
C759        C760   1.394       .  A
C759        N764   1.433       .  S
C760        C761   1.412       .  A
C760        H765   1.081       .  S
C761        C762   1.412       .  A
C762        N766   1.430       .  S
C763        C768   1.404       .  A
C763        C772   1.406       .  A
N764        O779   1.262       .  A
N764        O780   1.262   1_455  A
N766        O777   1.262       .  A
N766        O778   1.262       .  A
C768        C769   1.391       .  A
C768        N773   1.433   1_655  S
C769        C770   1.406       .  A
C769        H774   1.082       .  S
C770        C771   1.411       .  A
C771        C772   1.404       .  A
C771        N775   1.430       .  S
C772        H776   1.081       .  S
N773        O783   1.262       .  A
N773        O784   1.262       .  A
N775        O781   1.262       .  A
N775        O782   1.262       .  A
C785        C786   1.408       .  A
C785        C790   1.407       .  A
C785        H795   1.080       .  S
C786        C791   1.481       .  S
C786        C787   1.407       .  A
C787        C788   1.393       .  A
C787        N792   1.435       .  S
C788        C789   1.406       .  A
C788        H793   1.081       .  S
C789        C790   1.410       .  A
C790        N794   1.432       .  S
C791        C796   1.409       .  A
C791        C800   1.408       .  A
N792        O807   1.262       .  A
N792        O808   1.263       .  A
N794        O805   1.262       .  A
N794        O806   1.262       .  A
C796        C797   1.400       .  A
C796        N801   1.433       .  S
C797        C798   1.404       .  A
C797        H802   1.081       .  S
C798        C799   1.405       .  A
C799        C800   1.401       .  A
C799        N803   1.433       .  S
C800        H804   1.080       .  S
N801        O811   1.262       .  A
N801        O812   1.262       .  A
N803        O809   1.263       .  A
N803        O810   1.262       .  A
C813        C814   1.401       .  A
C813        C818   1.403       .  A
C813        H823   1.083       .  S
C814        C819   1.488   1_556  S
C814        C815   1.410       .  A
C815        C816   1.410       .  A
C815        N820   1.428       .  S
C816        C817   1.407       .  A
C816        H821   1.082       .  S
C817        C818   1.415       .  A
C818        N822   1.432       .  S
C819        C824   1.406       .  A
C819        C828   1.405       .  A
N820        O835   1.261       .  A
N820        O836   1.262       .  A
N822        O833   1.262       .  A
N822        O834   1.262       .  A
C824        C825   1.401       .  A
C824        N829   1.429       .  S
C825        C826   1.408       .  A
C825        H830   1.083       .  S
C826        C827   1.415       .  A
C827        C828   1.411       .  A
C827        N831   1.429       .  S
C828        H832   1.082       .  S
N829        O839   1.262       .  A
N829        O840   1.262       .  A
N831        O837   1.262       .  A
N831        O838   1.262       .  A
