geometry optimzed in LAMMPS
_audit_creation_date              2020-12-01 
_audit_creation_method            'lammps2cif' 
_symmetry_space_group_name_H-M    'P1' 
_symmetry_Int_Tables_number       1 
_symmetry_cell_setting            triclinic 
loop_ 
_symmetry_equiv_pos_as_xyz 
  x,y,z 
_cell_length_a                    29.00557236 
_cell_length_b                    28.82006857852991 
_cell_length_c                    55.13647477087479 
_cell_angle_alpha                 89.41262905224413 
_cell_angle_beta                  90.06993063080398 
_cell_angle_gamma                 89.33994774221122 
loop_ 
_atom_site_label 
_atom_site_type_symbol 
_atom_site_fract_x 
_atom_site_fract_y 
_atom_site_fract_z 
_atom_site_charge 
O1          O  0.68806920  0.03639004  0.64495050    -0.71800
O2          O  0.81385586  0.04484003  0.62268800    -0.72000
O3          O  0.73309388  0.02314841  0.60298813    -0.71800
O4          O  0.77024002  0.06158017  0.66544674    -0.71800
O5          O  0.77958116  0.98984204  0.67702514    -0.71800
O6          O  0.74830390  0.95135545  0.61246037    -0.71800
O7          O  0.82497810  0.97420186  0.63544138    -0.71800
O8          O  0.70070724  0.96390714  0.65387837    -0.72000
V9          V  0.75137773  0.04027761  0.63446307     1.35200
V10         V  0.76289766  0.97132334  0.64468194     1.35200
C11         C  0.67251903  0.99733875  0.65194060     0.77500
C12         C  0.83994892  0.00917735  0.62422586     0.77500
C13         C  0.73749461  0.98158412  0.59645226     0.77400
C14         C  0.78243050  0.03282532  0.68172837     0.77400
O15         O  0.89505839  0.27697429  0.87089982    -0.71800
O16         O  0.88816841  0.14929312  0.89115959    -0.72000
O17         O  0.90367465  0.23034097  0.91357307    -0.71800
O18         O  0.87745810  0.19510981  0.84870628    -0.71800
O19         O  0.95058229  0.18875458  0.84107192    -0.71800
O20         O  0.97654185  0.21836011  0.90762385    -0.71800
O21         O  0.96103868  0.14169791  0.88267101    -0.71800
O22         O  0.96853625  0.26771627  0.86607254    -0.72000
V23         V  0.89240702  0.21297300  0.88089842     1.35200
V24         V  0.96268720  0.20462016  0.87437022     1.35200
C25         C  0.93385642  0.29438231  0.86561727     0.77500
C26         C  0.92428649  0.12412856  0.89025741     0.77500
C27         C  0.94402096  0.22793264  0.92222856     0.77400
C28         C  0.90911070  0.18442805  0.83397297     0.77400
O29         O  0.31557733  0.87667690  0.65035209    -0.71800
O30         O  0.18792506  0.88562952  0.63041596    -0.72000
O31         O  0.26975717  0.89554695  0.60868867    -0.71800
O32         O  0.23202274  0.86260412  0.67183031    -0.71800
O33         O  0.22694483  0.93486235  0.68209269    -0.71800
O34         O  0.27029366  0.96850564  0.61779857    -0.71800
O35         O  0.18857811  0.95865794  0.63975096    -0.71800
O36         O  0.31149658  0.94863963  0.66080105    -0.72000
V37         V  0.25151667  0.88148031  0.64061725     1.35200
V38         V  0.24978336  0.95121950  0.65004971     1.35200
C39         C  0.33563696  0.91230671  0.65862629     0.77500
C40         C  0.16686917  0.92447963  0.63194925     0.77500
C41         C  0.27555393  0.93691141  0.60198044     0.77400
C42         C  0.21892868  0.89233396  0.68699514     0.77400
O43         O  0.06266208  0.64844219  0.86632479    -0.71800
O44         O  0.06510166  0.77699001  0.88476113    -0.72000
O45         O  0.05115723  0.69579926  0.90747457    -0.71800
O46         O  0.08079707  0.73056179  0.84347865    -0.71800
O47         O  0.00846830  0.73720948  0.83389373    -0.71800
O48         O  0.97798406  0.70346396  0.89991734    -0.71800
O49         O  0.99254967  0.78192968  0.87510484    -0.71800
O50         O  0.98978444  0.65689357  0.85844892    -0.72000
V51         V  0.06360581  0.71291727  0.87517228     1.35200
V52         V  0.99367704  0.71948501  0.86686955     1.35200
C53         C  0.02444258  0.63057172  0.86030101     0.77500
C54         C  0.02784519  0.80059035  0.88355930     0.77500
C55         C  0.01033443  0.69548258  0.91508740     0.77400
C56         C  0.05063978  0.74181988  0.82799533     0.77400
O57         O  0.08959581  0.25191182  0.14670498    -0.71800
O58         O  0.06241193  0.12456917  0.13229614    -0.72000
O59         O  0.05880705  0.20497852  0.10772420    -0.71800
O60         O  0.09627622  0.16971149  0.17121516    -0.71800
O61         O  0.02659470  0.17931233  0.18468645    -0.71800
O62         O  0.98833212  0.21515912  0.11992408    -0.71800
O63         O  0.99298461  0.13613210  0.14568978    -0.71800
O64         O  0.01923502  0.26036976  0.15939182    -0.72000
V65         V  0.07553951  0.18809033  0.13984912     1.35200
V66         V  0.00827707  0.19776585  0.15223522     1.35200
C67         C  0.05802872  0.27794220  0.15530555     0.77500
C68         C  0.02194229  0.10950046  0.13593842     0.77500
C69         C  0.01729983  0.21411953  0.10260194     0.77400
C70         C  0.06833141  0.16738877  0.18870988     0.77400
O71         O  0.32817341  0.01856934  0.37847435    -0.71800
O72         O  0.19740175  0.03138313  0.39020392    -0.72000
O73         O  0.27185125  0.00407208  0.41563211    -0.71800
O74         O  0.25194391  0.05106463  0.35209282    -0.71800
O75         O  0.23276732  0.98261351  0.34004094    -0.71800
O76         O  0.27062326  0.93332607  0.40258457    -0.71800
O77         O  0.19118764  0.95844097  0.38119083    -0.71800
O78         O  0.31416849  0.95399928  0.36064270    -0.72000
V79         V  0.26239957  0.02531682  0.38363247     1.35200
V80         V  0.25266610  0.95838647  0.37120256     1.35200
C81         C  0.34354633  0.98126894  0.36905044     0.77500
C82         C  0.17268896  0.99543589  0.38828165     0.77500
C83         C  0.27604654  0.96131124  0.42007766     0.77400
C84         C  0.23357465  0.02622257  0.33605427     0.77400
O85         O  0.70298283  0.84715110  0.37309619    -0.71800
O86         O  0.83144545  0.85800162  0.38873703    -0.72000
O87         O  0.75236900  0.86839208  0.41234799    -0.71800
O88         O  0.78445926  0.83399442  0.34842546    -0.71800
O89         O  0.78468617  0.90639634  0.33710084    -0.71800
O90         O  0.74839803  0.94095533  0.40142421    -0.71800
O91         O  0.82761045  0.93039997  0.37779494    -0.71800
O92         O  0.70258729  0.91895827  0.36080315    -0.72000
V93         V  0.76757704  0.85308389  0.38015518     1.35200
V94         V  0.76556747  0.92261370  0.36930530     1.35200
C95         C  0.68045255  0.88266524  0.36573388     0.77500
C96         C  0.85034996  0.89742807  0.38723733     0.77500
C97         C  0.74673210  0.91027498  0.41806796     0.77400
C98         C  0.79311575  0.86414842  0.33232185     0.77400
O99         O  0.94269276  0.62977484  0.15086933    -0.71800
O100        O  0.91150023  0.75236122  0.12881247    -0.72000
O101        O  0.93679782  0.67283087  0.10733689    -0.71800
O102        O  0.91615610  0.70975378  0.17231280    -0.71800
O103        O  0.98824598  0.72800942  0.17600196    -0.71800
O104        O  0.00797765  0.69441664  0.10964824    -0.71800
O105        O  0.98339039  0.77130704  0.13280936    -0.71800
O106        O  0.01454097  0.64858438  0.15246559    -0.72000
V107        V  0.92823623  0.69135021  0.13996397     1.35200
V108        V  0.99722072  0.70994546  0.14283840     1.35200
C109        C  0.98420336  0.61753941  0.15446125     0.77500
C110        C  0.94266224  0.78259628  0.12700239     0.77500
C111        C  0.97493243  0.67961574  0.09691669     0.77400
C112        C  0.94798385  0.72668758  0.18498473     0.77400
C113        C  0.81655385  0.84971947  0.30950484     0.01400
C114        C  0.79300270  0.82416923  0.29179976     0.04200
C115        C  0.81725955  0.80459794  0.27205085    -0.11900
C116        C  0.86577428  0.80843246  0.27046409     0.23500
C117        C  0.88931367  0.83356433  0.28838113    -0.12500
C118        C  0.86463081  0.85567675  0.30713193     0.04900
C119        C  0.89187897  0.78713265  0.24976269     0.27300
C120        C  0.89836907  0.73852338  0.24846624    -0.13100
C121        C  0.91891794  0.71848241  0.22775503     0.05400
C122        C  0.93636362  0.74688918  0.20900832    -0.09100
C123        C  0.93491694  0.79552683  0.21175073     0.06200
C124        C  0.91076629  0.81555951  0.23133730    -0.13500
Br125      Br  0.95585252  0.83554546  0.28800927    -0.05500
Br126      Br  0.72727624  0.81688110  0.29448608     0.00100
Br127      Br  0.92414767  0.65198941  0.22507483     0.00500
Br128      Br  0.90144497  0.88197623  0.23219730    -0.03900
Br129      Br  0.89717035  0.89416031  0.32959176     0.00600
Br130      Br  0.78397702  0.77225121  0.24722123    -0.03200
Br131      Br  0.87939825  0.69947397  0.27515656    -0.04000
Br132      Br  0.96603649  0.83488826  0.18870730    -0.00100
C133        C  0.12303208  0.99422183  0.39328593     0.01400
C134        C  0.10796893  0.98358290  0.41697162     0.04200
C135        C  0.06422462  0.96385303  0.42058718    -0.11900
C136        C  0.03429873  0.95816134  0.40070033     0.23500
C137        C  0.04790044  0.97262987  0.37736918    -0.12500
C138        C  0.09278081  0.98840263  0.37351910     0.04900
C139        C  0.98823571  0.93729299  0.40368594     0.27300
C140        C  0.98021309  0.89182955  0.39553062    -0.13100
C141        C  0.93473563  0.87630432  0.39226090     0.05400
C142        C  0.89734455  0.90700818  0.39645857    -0.09100
C143        C  0.90576976  0.95060787  0.40728305     0.06200
C144        C  0.95110177  0.96560181  0.41080121    -0.13500
Br145      Br  0.00571404  0.96835377  0.35030034    -0.05500
Br146      Br  0.14880714  0.99254178  0.44409198     0.00100
Br147      Br  0.92464946  0.81456188  0.38027093     0.00500
Br148      Br  0.96256309  0.02671188  0.42344987    -0.03900
Br149      Br  0.11409294  0.99592416  0.34068149     0.00600
Br150      Br  0.04657938  0.94136875  0.45224472    -0.03200
Br151      Br  0.03182757  0.85265177  0.38672342    -0.04000
Br152      Br  0.85560592  0.99100464  0.41719908    -0.00100
C153        C  0.62912287  0.88500539  0.36510167     0.01400
C154        C  0.60377015  0.87880752  0.38678093     0.04200
C155        C  0.55788285  0.89558072  0.38844611    -0.11900
C156        C  0.53607119  0.91645197  0.36809918     0.23500
C157        C  0.56000151  0.91860479  0.34587380    -0.12500
C158        C  0.60644663  0.90372502  0.34448980     0.04900
C159        C  0.48718605  0.93372083  0.36955913     0.27300
C160        C  0.45093883  0.90197943  0.36850485    -0.13100
C161        C  0.40473996  0.91751340  0.36958979     0.05400
C162        C  0.39358207  0.96601580  0.36952404    -0.09100
C163        C  0.43045046  0.99779996  0.37113771     0.06200
C164        C  0.47682427  0.98151828  0.37163860    -0.13500
Br165      Br  0.52890836  0.94216994  0.31729456    -0.05500
Br166      Br  0.63221628  0.84919899  0.41467634     0.00100
Br167      Br  0.35833828  0.87020086  0.37379153     0.00500
Br168      Br  0.52673099  0.02445268  0.37562636    -0.03900
Br169      Br  0.63911064  0.90841235  0.31416198     0.00600
Br170      Br  0.52530783  0.89156685  0.41889141    -0.03200
Br171      Br  0.46503741  0.83647325  0.36550531    -0.04000
Br172      Br  0.41860628  0.06369249  0.37255684    -0.00100
C173        C  0.93333713  0.83088212  0.11921601     0.01400
C174        C  0.90801109  0.86038079  0.13454590     0.04200
C175        C  0.91887901  0.90784926  0.13530488    -0.11900
C176        C  0.95031503  0.92648173  0.11837418     0.23500
C177        C  0.96717669  0.89844962  0.09953031    -0.12500
C178        C  0.96044741  0.85028018  0.10057098     0.04900
C179        C  0.96956391  0.97352897  0.12167860     0.27300
C180        C  0.94413787  0.01317636  0.11459333    -0.13100
C181        C  0.96272615  0.05753233  0.11790437     0.05400
C182        C  0.00671706  0.06259312  0.12882949    -0.09100
C183        C  0.03284001  0.02267245  0.13506180     0.06200
C184        C  0.01422324  0.97829139  0.13153787    -0.13500
Br185      Br  0.00224331  0.92588050  0.07348396    -0.05500
Br186      Br  0.86098541  0.83521412  0.15541923     0.00100
Br187      Br  0.92787731  0.11112717  0.10651383     0.00500
Br188      Br  0.04929058  0.92368495  0.14102349    -0.03900
Br189      Br  0.99052801  0.81048980  0.07739428     0.00600
Br190      Br  0.89495070  0.94568913  0.16113338    -0.03200
Br191      Br  0.88353075  0.00648684  0.10057773    -0.04000
Br192      Br  0.09295313  0.02833217  0.14967184    -0.00100
C193        C  0.99765562  0.56784088  0.15962717     0.01400
C194        C  0.03913455  0.55639146  0.17224146     0.04200
C195        C  0.05478830  0.50979042  0.17390516    -0.11900
C196        C  0.02791103  0.47379035  0.16454066     0.23500
C197        C  0.98473223  0.48443121  0.15411507    -0.12500
C198        C  0.97058228  0.53098846  0.15053724     0.04900
C199        C  0.04543695  0.42479250  0.16437027     0.27300
C200        C  0.06746837  0.40729857  0.14349451    -0.13100
C201        C  0.07652322  0.35922077  0.14131106     0.05400
C202        C  0.06357763  0.32833409  0.16008873    -0.09100
C203        C  0.04578108  0.34666257  0.18192723     0.06200
C204        C  0.03629177  0.39456089  0.18395496    -0.13500
Br205      Br  0.94479657  0.43449144  0.14472365    -0.05500
Br206      Br  0.07470096  0.60351725  0.18818427     0.00100
Br207      Br  0.10266465  0.33569111  0.11168437     0.00500
Br208      Br  0.00768818  0.41842688  0.21289188    -0.03900
Br209      Br  0.91636908  0.54259106  0.13086123     0.00600
Br210      Br  0.11340533  0.49475721  0.18878631    -0.03200
Br211      Br  0.08229362  0.44926202  0.11722708    -0.04000
Br212      Br  0.03312299  0.30568804  0.20899479    -0.00100
C213        C  0.20909844  0.04854067  0.31463828     0.01400
C214        C  0.17604288  0.08465883  0.31842480     0.04200
C215        C  0.14825450  0.10170496  0.29908300    -0.11900
C216        C  0.15533983  0.08611686  0.27523499     0.23500
C217        C  0.18909414  0.05124230  0.27120328    -0.12500
C218        C  0.21527206  0.03213528  0.29076690     0.04900
C219        C  0.12978688  0.10886497  0.25429469     0.27300
C220        C  0.08954317  0.08914233  0.24443424    -0.13100
C221        C  0.06779047  0.10937268  0.22372323     0.05400
C222        C  0.08546510  0.15020498  0.21291533    -0.09100
C223        C  0.12412050  0.17125378  0.22369506     0.06200
C224        C  0.14604884  0.15078059  0.24415893    -0.13500
Br225      Br  0.19928075  0.02970143  0.23866003    -0.05500
Br226      Br  0.16641611  0.11028005  0.35029722     0.00100
Br227      Br  0.01577067  0.07918804  0.20914815     0.00500
Br228      Br  0.19903980  0.18001607  0.25829631    -0.03900
Br229      Br  0.26191674  0.98567323  0.28457157     0.00600
Br230      Br  0.09852682  0.14510477  0.30528773    -0.03200
Br231      Br  0.06436346  0.03428791  0.25940023    -0.04000
Br232      Br  0.14696435  0.22884014  0.21048886    -0.00100
C233        C  0.97928005  0.67333544  0.07015667     0.01400
C234        C  0.94338497  0.68949148  0.05460995     0.04200
C235        C  0.94771854  0.68600204  0.02925513    -0.11900
C236        C  0.98824838  0.66757610  0.01895313     0.23500
C237        C  0.02367804  0.65036865  0.03428318    -0.12500
C238        C  0.01935718  0.65333561  0.05977327     0.04900
C239        C  0.99554499  0.67231014  0.99221852     0.27300
C240        C  0.97363967  0.64251173  0.97570983    -0.13100
C241        C  0.97611109  0.65131399  0.95045071     0.05400
C242        C  0.00264880  0.68845585  0.94152042    -0.09100
C243        C  0.02640211  0.71683326  0.95813482     0.06200
C244        C  0.02173522  0.70958991  0.98327697    -0.13500
Br245      Br  0.07857873  0.62364719  0.02014250    -0.05500
Br246      Br  0.88975204  0.72130549  0.06740186     0.00100
Br247      Br  0.94494357  0.61134299  0.92807687     0.00500
Br248      Br  0.05067021  0.75156231  0.00565287    -0.03900
Br249      Br  0.06853066  0.62974169  0.08023600     0.00600
Br250      Br  0.89870713  0.70866535  0.00834636    -0.03200
Br251      Br  0.94131519  0.58906498  0.98783976    -0.04000
Br252      Br  0.06543708  0.76650101  0.94680132    -0.00100
C253        C  0.28659858  0.94693460  0.44555675     0.01400
C254        C  0.32117889  0.97100657  0.45829750     0.04200
C255        C  0.32293123  0.96942003  0.48384228    -0.11900
C256        C  0.29050226  0.94336011  0.49699217     0.23500
C257        C  0.25877299  0.91575174  0.48428839    -0.12500
C258        C  0.25695544  0.91730198  0.45862782     0.04900
C259        C  0.28987881  0.94514095  0.52412655     0.27300
C260        C  0.31762717  0.91432554  0.53782060    -0.13100
C261        C  0.31607087  0.91491873  0.56337115     0.05400
C262        C  0.28598730  0.94579539  0.57573916    -0.09100
C263        C  0.25991806  0.97838745  0.56191089     0.06200
C264        C  0.26205061  0.97806876  0.53624082    -0.13500
Br265      Br  0.21679674  0.87708039  0.50224465    -0.05500
Br266      Br  0.36653037  0.00643381  0.44065099     0.00100
Br267      Br  0.35595120  0.87302906  0.58124878     0.00500
Br268      Br  0.22573151  0.02179507  0.51738312    -0.03900
Br269      Br  0.21224668  0.88080866  0.44161827     0.00600
Br270      Br  0.36888795  0.00419190  0.50101358    -0.03200
Br271      Br  0.35693671  0.87024628  0.52135168    -0.04000
Br272      Br  0.21863278  0.02135739  0.57773503    -0.00100
C273        C  0.19058658  0.87624516  0.70826504     0.01400
C274        C  0.15293000  0.84610355  0.70406263     0.04200
C275        C  0.12664969  0.82845452  0.72348602    -0.11900
C276        C  0.13841704  0.83851275  0.74757053     0.23500
C277        C  0.17534308  0.86895060  0.75202711    -0.12500
C278        C  0.20102168  0.88814738  0.73246745     0.04900
C279        C  0.11419167  0.81339303  0.76781256     0.27300
C280        C  0.07428247  0.83231050  0.77876304    -0.13100
C281        C  0.05023621  0.80695708  0.79682356     0.05400
C282        C  0.06651998  0.76271478  0.80453139    -0.09100
C283        C  0.10511758  0.74298637  0.79259715     0.06200
C284        C  0.12865224  0.76808207  0.77440024    -0.13500
Br285      Br  0.19130250  0.88306874  0.78505746    -0.05500
Br286      Br  0.13605644  0.82790832  0.67163441     0.00100
Br287      Br  0.99606842  0.83395721  0.81155506     0.00500
Br288      Br  0.18114028  0.74037779  0.75834900    -0.03900
Br289      Br  0.25263617  0.92758821  0.73898311     0.00600
Br290      Br  0.07434516  0.78929895  0.71725751    -0.03200
Br291      Br  0.05312851  0.89343901  0.76918823    -0.04000
Br292      Br  0.12534678  0.68065290  0.80076855    -0.00100
C293        C  0.95216193  0.23354430  0.94905098     0.01400
C294        C  0.91993853  0.21587224  0.96618038     0.04200
C295        C  0.92918071  0.21750940  0.99134220    -0.11900
C296        C  0.97050388  0.23649056  0.99996817     0.23500
C297        C  0.00192371  0.25555027  0.98319936    -0.12500
C298        C  0.99285100  0.25432082  0.95794689     0.04900
C299        C  0.98269132  0.23193748  0.02638738     0.27300
C300        C  0.97207938  0.26748454  0.04303102    -0.13100
C301        C  0.98294586  0.26190141  0.06798473     0.05400
C302        C  0.00375451  0.22036379  0.07658979    -0.09100
C303        C  0.01442558  0.18491394  0.05980961     0.06200
C304        C  0.00390104  0.19069207  0.03496352    -0.13500
Br305      Br  0.05816105  0.28233067  0.99504605    -0.05500
Br306      Br  0.86410024  0.18577734  0.95585588     0.00100
Br307      Br  0.97229300  0.31224927  0.09011266     0.00500
Br308      Br  0.01815018  0.14166525  0.01242847    -0.03900
Br309      Br  0.03601091  0.28259912  0.93583256     0.00600
Br310      Br  0.88602773  0.19176456  0.01436758    -0.03200
Br311      Br  0.94251307  0.32371079  0.03153495    -0.04000
Br312      Br  0.04281665  0.12741647  0.07068833    -0.00100
C313        C  0.02230480  0.84840335  0.89221903     0.01400
C314        C  0.98479438  0.85772875  0.90790377     0.04200
C315        C  0.96740813  0.90296966  0.91012165    -0.11900
C316        C  0.98778313  0.93934231  0.89707646     0.23500
C317        C  0.02740579  0.93096754  0.88285481    -0.12500
C318        C  0.04462798  0.88531006  0.88032511     0.04900
C319        C  0.96574028  0.98578612  0.89757742     0.27300
C320        C  0.93068435  0.99742433  0.88073966    -0.13100
C321        C  0.91005864  0.04181925  0.88109893     0.05400
C322        C  0.92619935  0.07507228  0.89742445    -0.09100
C323        C  0.95810312  0.06195102  0.91562555     0.06200
C324        C  0.97770441  0.01722903  0.91579393    -0.13500
Br325      Br  0.05583627  0.98161710  0.86559715    -0.05500
Br326      Br  0.95411721  0.80802208  0.92498364     0.00100
Br327      Br  0.86159213  0.05817694  0.85851883     0.00500
Br328      Br  0.02240133  0.99953154  0.94023466    -0.03900
Br329      Br  0.09522310  0.87274510  0.85859329     0.00600
Br330      Br  0.91311737  0.91484892  0.92948973    -0.03200
Br331      Br  0.91286183  0.95339524  0.85643890    -0.04000
Br332      Br  0.97677527  0.10647437  0.93949895    -0.00100
C333        C  0.94078344  0.34479821  0.86012032     0.01400
C334        C  0.97941359  0.35836106  0.84597569     0.04200
C335        C  0.99373796  0.40480901  0.84555371    -0.11900
C336        C  0.96846629  0.43884108  0.85801023     0.23500
C337        C  0.92757777  0.42664433  0.87018106    -0.12500
C338        C  0.91370208  0.37980320  0.87135696     0.04900
C339        C  0.98500163  0.48755460  0.85788196     0.27300
C340        C  0.01737518  0.50197756  0.87525688    -0.13100
C341        C  0.03359761  0.54795864  0.87495189     0.05400
C342        C  0.01743039  0.57994134  0.85716438    -0.09100
C343        C  0.98612119  0.56462496  0.83922368     0.06200
C344        C  0.97000287  0.51872783  0.83966770    -0.13500
Br345      Br  0.89151828  0.47436614  0.88586692    -0.05500
Br346      Br  0.01253835  0.31432313  0.82604444     0.00100
Br347      Br  0.07483176  0.56747625  0.90029210     0.00500
Br348      Br  0.92638104  0.49840088  0.81561728    -0.03900
Br349      Br  0.85850942  0.36471852  0.88918340     0.00600
Br350      Br  0.04917549  0.42211486  0.82845763    -0.03200
Br351      Br  0.03819354  0.45873464  0.89999602    -0.04000
Br352      Br  0.96449259  0.60639630  0.81388580    -0.00100
C353        C  0.74143474  0.92202997  0.44398509     0.01400
C354        C  0.77471314  0.90526424  0.46080167     0.04200
C355        C  0.76912200  0.91322603  0.48571082    -0.11900
C356        C  0.73067195  0.93856358  0.49407795     0.23500
C357        C  0.69772542  0.95597037  0.47737740    -0.12500
C358        C  0.70302514  0.94767722  0.45234062     0.04900
C359        C  0.72836845  0.95106279  0.52012748     0.27300
C360        C  0.70542171  0.92260466  0.53709099    -0.13100
C361        C  0.70774195  0.93245212  0.56211665     0.05400
C362        C  0.73369084  0.97044063  0.57025745    -0.09100
C363        C  0.75677470  0.99872717  0.55302309     0.06200
C364        C  0.75334946  0.98948216  0.52812814    -0.13500
Br365      Br  0.64600177  0.99196232  0.48891355    -0.05500
Br366      Br  0.82998013  0.87380932  0.44988300     0.00100
Br367      Br  0.67431299  0.89472854  0.58501904     0.00500
Br368      Br  0.78424012  0.02864152  0.50467502    -0.03900
Br369      Br  0.65727955  0.97061020  0.42967030     0.00600
Br370      Br  0.81511938  0.89077907  0.50852547    -0.03200
Br371      Br  0.67151255  0.86983084  0.52586730    -0.04000
Br372      Br  0.79668637  0.04825787  0.56307224    -0.00100
C373        C  0.88651806  0.00508689  0.61303960     0.01400
C374        C  0.89992591  0.96115654  0.60401567     0.04200
C375        C  0.94664343  0.94827687  0.60323994    -0.11900
C376        C  0.98054965  0.98123726  0.60831204     0.23500
C377        C  0.96721889  0.02802152  0.61199279    -0.12500
C378        C  0.92009186  0.03990526  0.61491955     0.04900
C379        C  0.02843638  0.96516580  0.61381532     0.27300
C380        C  0.04236510  0.96165927  0.63825637    -0.13100
C381        C  0.08730231  0.94693446  0.64413171     0.05400
C382        C  0.11772427  0.93170684  0.62578922    -0.09100
C383        C  0.10312829  0.93291403  0.60138753     0.06200
C384        C  0.05898638  0.95083565  0.59533557    -0.13500
Br385      Br  0.01396832  0.07462750  0.61490350    -0.05500
Br386      Br  0.85423415  0.91832113  0.59251795     0.00100
Br387      Br  0.10740775  0.95012887  0.67747029     0.00500
Br388      Br  0.04088505  0.95732749  0.56180865    -0.03900
Br389      Br  0.90241890  0.10267282  0.62261651     0.00600
Br390      Br  0.96353854  0.88404097  0.59833039    -0.03200
Br391      Br  0.99956655  0.97661363  0.66394227    -0.04000
Br392      Br  0.14465821  0.91269812  0.57624019    -0.00100
C393        C  0.38659939  0.91480920  0.66411579     0.01400
C394        C  0.40311184  0.95086443  0.67916820     0.04200
C395        C  0.44982120  0.96406532  0.67840347    -0.11900
C396        C  0.48135668  0.94033142  0.66350670     0.23500
C397        C  0.46657370  0.90061669  0.65104583    -0.12500
C398        C  0.41966688  0.88730421  0.65168442     0.04900
C399        C  0.53000484  0.95707585  0.66119649     0.27300
C400        C  0.54256610  0.98654276  0.64175029    -0.13100
C401        C  0.58856156  0.00180318  0.63925295     0.05400
C402        C  0.62246382  0.98859503  0.65658238    -0.09100
C403        C  0.60921270  0.96027336  0.67650853     0.06200
C404        C  0.56347937  0.94439084  0.67865598    -0.13500
Br405      Br  0.51086321  0.86516570  0.63261071    -0.05500
Br406      Br  0.36286240  0.98099184  0.70225339     0.00100
Br407      Br  0.60539815  0.03734924  0.61082286     0.00500
Br408      Br  0.54660485  0.90426311  0.70535257    -0.03900
Br409      Br  0.40223546  0.83050298  0.63620900     0.00600
Br410      Br  0.47071870  0.01586430  0.69728383    -0.03200
Br411      Br  0.49647091  0.00516983  0.61822108    -0.04000
Br412      Br  0.65354250  0.94313383  0.70126846    -0.00100
C413        C  0.89669688  0.16475575  0.80970243     0.01400
C414        C  0.86379224  0.18749576  0.79461308     0.04200
C415        C  0.84729216  0.16600607  0.77333289    -0.11900
C416        C  0.86047958  0.11992914  0.76779125     0.23500
C417        C  0.89329730  0.09716403  0.78287307    -0.12500
C418        C  0.91282394  0.12015611  0.80296302     0.04900
C419        C  0.84033634  0.09564161  0.74610942     0.27300
C420        C  0.79366006  0.08165919  0.74586277    -0.13100
C421        C  0.77434513  0.06149254  0.72486288     0.05400
C422        C  0.80250356  0.05023630  0.70488846    -0.09100
C423        C  0.84975716  0.06121897  0.70586577     0.06200
C424        C  0.86788490  0.08614730  0.72558923    -0.13500
Br425      Br  0.90962009  0.03320144  0.77680617    -0.05500
Br426      Br  0.84167041  0.24874049  0.80284479     0.00100
Br427      Br  0.70902081  0.05100961  0.72300094     0.00500
Br428      Br  0.92981771  0.10966842  0.72376361    -0.03900
Br429      Br  0.96067499  0.08933318  0.82162936     0.00600
Br430      Br  0.80704924  0.20006059  0.75146291    -0.03200
Br431      Br  0.75629158  0.08935793  0.77444959    -0.04000
Br432      Br  0.89008640  0.04123096  0.68027562    -0.00100
loop_ 
_geom_bond_atom_site_label_1 
_geom_bond_atom_site_label_2 
_geom_bond_distance 
_geom_bond_site_symmetry_2 
_ccdc_geom_bond_type 
O1            V9   1.930       .  S
O1           C11   1.274   1_545  A
O2            V9   1.931       .  S
O2           C12   1.271       .  A
O3            V9   1.886       .  S
O3           C13   1.260   1_545  A
O4            V9   1.903       .  S
O4           C14   1.263       .  A
O5           V10   1.929       .  S
O5           C14   1.272   1_565  A
O6           V10   1.921       .  S
O6           C13   1.270       .  A
O7           V10   1.874       .  S
O7           C12   1.259   1_565  A
O8           V10   1.888       .  S
O8           C11   1.260       .  A
V9           V10   2.083   1_545  T
C11         C402   1.498       .  S
C12         C373   1.490       .  S
C13         C362   1.487       .  S
C14         C422   1.496       .  S
O15          V23   1.922       .  S
O15          C25   1.270       .  A
O16          V23   1.920       .  S
O16          C26   1.269       .  A
O17          V23   1.904       .  S
O17          C27   1.264       .  A
O18          V23   1.904       .  S
O18          C28   1.264       .  A
O19          V24   1.929       .  S
O19          C28   1.272       .  A
O20          V24   1.923       .  S
O20          C27   1.271       .  A
O21          V24   1.867       .  S
O21          C26   1.256       .  A
O22          V24   1.880       .  S
O22          C25   1.259       .  A
V23          V24   2.082       .  T
C25         C333   1.497       .  S
C26         C322   1.465       .  S
C27         C293   1.508       .  S
C28         C413   1.504       .  S
O29          V37   1.936       .  S
O29          C39   1.274       .  A
O30          V37   1.930       .  S
O30          C40   1.273       .  A
O31          V37   1.880       .  S
O31          C41   1.258       .  A
O32          V37   1.889       .  S
O32          C42   1.259       .  A
O33          V38   1.943       .  S
O33          C42   1.276       .  A
O34          V38   1.938       .  S
O34          C41   1.275       .  A
O35          V38   1.873       .  S
O35          C40   1.255       .  A
O36          V38   1.885       .  S
O36          C39   1.260       .  A
V37          V38   2.081       .  T
C39         C393   1.511       .  S
C40         C382   1.477       .  S
C41         C262   1.499       .  S
C42         C273   1.505       .  S
O43          V51   1.926       .  S
O43          C53   1.273       .  A
O44          V51   1.927       .  S
O44          C54   1.272       .  A
O45          V51   1.880       .  S
O45          C55   1.257       .  A
O46          V51   1.884       .  S
O46          C56   1.259       .  A
O47          V52   1.934   1_455  S
O47          C56   1.274       .  A
O48          V52   1.931       .  S
O48          C55   1.274   1_655  A
O49          V52   1.860       .  S
O49          C54   1.254   1_655  A
O50          V52   1.872       .  S
O50          C53   1.256   1_655  A
V51          V52   2.085   1_455  T
C53         C342   1.487       .  S
C54         C313   1.470       .  S
C55         C242   1.487       .  S
C56         C282   1.497       .  S
O57          V65   1.930       .  S
O57          C67   1.272       .  A
O58          V65   1.924       .  S
O58          C68   1.272       .  A
O59          V65   1.893       .  S
O59          C69   1.261       .  A
O60          V65   1.899       .  S
O60          C70   1.262       .  A
O61          V66   1.933       .  S
O61          C70   1.273       .  A
O62          V66   1.932   1_655  S
O62          C69   1.273   1_655  A
O63          V66   1.874   1_655  S
O63          C68   1.256   1_655  A
O64          V66   1.881       .  S
O64          C67   1.259       .  A
V65          V66   2.084       .  T
C67         C202   1.489       .  S
C68         C182   1.483       .  S
C69         C302   1.495       .  S
C70         C222   1.501       .  S
O71          V79   1.937       .  S
O71          C81   1.275   1_545  A
O72          V79   1.927       .  S
O72          C82   1.272   1_545  A
O73          V79   1.880       .  S
O73          C83   1.259   1_545  A
O74          V79   1.906       .  S
O74          C84   1.265       .  A
O75          V80   1.933       .  S
O75          C84   1.274   1_565  A
O76          V80   1.937       .  S
O76          C83   1.274       .  A
O77          V80   1.867       .  S
O77          C82   1.254       .  A
O78          V80   1.880       .  S
O78          C81   1.257       .  A
V79          V80   2.076   1_545  T
C81         C162   1.512       .  S
C82         C133   1.468       .  S
C83         C253   1.491       .  S
C84         C213   1.511       .  S
O85          V93   1.923       .  S
O85          C95   1.271       .  A
O86          V93   1.919       .  S
O86          C96   1.269       .  A
O87          V93   1.885       .  S
O87          C97   1.260       .  A
O88          V93   1.902       .  S
O88          C98   1.263       .  A
O89          V94   1.922       .  S
O89          C98   1.269       .  A
O90          V94   1.918       .  S
O90          C97   1.269       .  A
O91          V94   1.875       .  S
O91          C96   1.258       .  A
O92          V94   1.890       .  S
O92          C95   1.261       .  A
V93          V94   2.086       .  T
C95         C153   1.490       .  S
C96         C142   1.484       .  S
C97         C353   1.480       .  S
C98         C113   1.491       .  S
O99         V107   1.910       .  S
O99         C109   1.265       .  A
O100        V107   1.914       .  S
O100        C110   1.266       .  A
O101        V107   1.897       .  S
O101        C111   1.263       .  A
O102        V107   1.898       .  S
O102        C112   1.263       .  A
O103        V108   1.923       .  S
O103        C112   1.270       .  A
O104        V108   1.913   1_455  S
O104        C111   1.268   1_455  A
O105        V108   1.886       .  S
O105        C110   1.262       .  A
O106        V108   1.903   1_455  S
O106        C109   1.266   1_455  A
V107        V108   2.084       .  T
C109        C193   1.504       .  S
C110        C173   1.474       .  S
C111        C233   1.494       .  S
C112        C122   1.490       .  S
C113        C114   1.409       .  A
C113        C118   1.413       .  A
C114        C115   1.416       .  A
C114       Br126   1.926       .  S
C115        C116   1.416       .  A
C115       Br130   1.928       .  S
C116        C119   1.503       .  S
C116        C117   1.411       .  A
C117        C118   1.412       .  A
C117       Br125   1.932       .  S
C118       Br129   1.925       .  S
C119        C120   1.414       .  A
C119        C124   1.414       .  A
C120        C121   1.414       .  A
C120       Br131   1.928       .  S
C121        C122   1.410       .  A
C121       Br127   1.928       .  S
C122        C123   1.412       .  A
C123        C124   1.413       .  A
C123       Br132   1.927       .  S
C124       Br128   1.931       .  S
C133        C134   1.409       .  A
C133        C138   1.411       .  A
C134        C135   1.410       .  A
C134       Br146   1.928       .  S
C135        C136   1.410       .  A
C135       Br150   1.927       .  S
C136        C139   1.480   1_455  S
C136        C137   1.407       .  A
C137        C138   1.400       .  A
C137       Br145   1.935       .  S
C138       Br149   1.925       .  S
C139        C140   1.411       .  A
C139        C144   1.403       .  A
C140        C141   1.410       .  A
C140       Br151   1.930   1_655  S
C141        C142   1.413       .  A
C141       Br147   1.930       .  S
C142        C143   1.420       .  A
C143        C144   1.403       .  A
C143       Br152   1.936       .  S
C144       Br148   1.933   1_565  S
C153        C154   1.415       .  A
C153        C158   1.412       .  A
C154        C155   1.414       .  A
C154       Br166   1.931       .  S
C155        C156   1.413       .  A
C155       Br170   1.930       .  S
C156        C159   1.500       .  S
C156        C157   1.410       .  A
C157        C158   1.411       .  A
C157       Br165   1.928       .  S
C158       Br169   1.927       .  S
C159        C160   1.403       .  A
C159        C164   1.412       .  A
C160        C161   1.409       .  A
C160       Br171   1.936       .  S
C161        C162   1.431       .  A
C161       Br167   1.939       .  S
C162        C163   1.419       .  A
C163        C164   1.420       .  A
C163       Br172   1.928   1_565  S
C164       Br168   1.929   1_565  S
C173        C174   1.407       .  A
C173        C178   1.410       .  A
C174        C175   1.408       .  A
C174       Br186   1.929       .  S
C175        C176   1.412       .  A
C175       Br190   1.928       .  S
C176        C179   1.485       .  S
C176        C177   1.407       .  A
C177        C178   1.405       .  A
C177       Br185   1.929   1_655  S
C178       Br189   1.928       .  S
C179        C180   1.405   1_565  A
C179        C184   1.413   1_655  A
C180        C181   1.407       .  A
C180       Br191   1.932       .  S
C181        C182   1.420   1_655  A
C181       Br187   1.935       .  S
C182        C183   1.410       .  A
C183        C184   1.409   1_545  A
C183       Br192   1.929       .  S
C184       Br188   1.931       .  S
C193        C194   1.423   1_655  A
C193        C198   1.423       .  A
C194        C195   1.415       .  A
C194       Br206   1.933       .  S
C195        C196   1.407       .  A
C195       Br210   1.930       .  S
C196        C199   1.495       .  S
C196        C197   1.407   1_455  A
C197        C198   1.410       .  A
C197       Br205   1.932       .  S
C198       Br209   1.933       .  S
C199        C200   1.412       .  A
C199        C204   1.408       .  A
C200        C201   1.414       .  A
C200       Br211   1.929       .  S
C201        C202   1.412       .  A
C201       Br207   1.928       .  S
C202        C203   1.415       .  A
C203        C204   1.410       .  A
C203       Br212   1.932       .  S
C204       Br208   1.929       .  S
C213        C214   1.424       .  A
C213        C218   1.414       .  A
C214        C215   1.416       .  A
C214       Br226   1.932       .  S
C215        C216   1.408       .  A
C215       Br230   1.931       .  S
C216        C219   1.511       .  S
C216        C217   1.414       .  A
C217        C218   1.421       .  A
C217       Br225   1.927       .  S
C218       Br229   1.926   1_545  S
C219        C220   1.415       .  A
C219        C224   1.412       .  A
C220        C221   1.421       .  A
C220       Br231   1.927       .  S
C221        C222   1.415       .  A
C221       Br227   1.929       .  S
C222        C223   1.414       .  A
C223        C224   1.415       .  A
C223       Br232   1.930       .  S
C224       Br228   1.929       .  S
C233        C234   1.419       .  A
C233        C238   1.416   1_655  A
C234        C235   1.408       .  A
C234       Br246   1.934       .  S
C235        C236   1.407       .  A
C235       Br250   1.933       .  S
C236        C239   1.495   1_554  S
C236        C237   1.412   1_655  A
C237        C238   1.415       .  A
C237       Br245   1.930       .  S
C238       Br249   1.931       .  S
C239        C240   1.413       .  A
C239        C244   1.408   1_655  A
C240        C241   1.415       .  A
C240       Br251   1.927       .  S
C241        C242   1.411   1_655  A
C241       Br247   1.928       .  S
C242        C243   1.418       .  A
C243        C244   1.407       .  A
C243       Br252   1.934       .  S
C244       Br248   1.934   1_556  S
C253        C254   1.416       .  A
C253        C258   1.412       .  A
C254        C255   1.410       .  A
C254       Br266   1.932   1_565  S
C255        C256   1.408       .  A
C255       Br270   1.930   1_565  S
C256        C259   1.498       .  S
C256        C257   1.413       .  A
C257        C258   1.416       .  A
C257       Br265   1.928       .  S
C258       Br269   1.928       .  S
C259        C260   1.405       .  A
C259        C264   1.412       .  A
C260        C261   1.410       .  A
C260       Br271   1.932       .  S
C261        C262   1.419       .  A
C261       Br267   1.926       .  S
C262        C263   1.415       .  A
C263        C264   1.417       .  A
C263       Br272   1.929   1_565  S
C264       Br268   1.928   1_565  S
C273        C274   1.424       .  A
C273        C278   1.414       .  A
C274        C275   1.409       .  A
C274       Br286   1.932       .  S
C275        C276   1.405       .  A
C275       Br290   1.934       .  S
C276        C279   1.504       .  S
C276        C277   1.415       .  A
C277        C278   1.422       .  A
C277       Br285   1.927       .  S
C278       Br289   1.926       .  S
C279        C280   1.413       .  A
C279        C284   1.411       .  A
C280        C281   1.418       .  A
C280       Br291   1.927       .  S
C281        C282   1.416       .  A
C281       Br287   1.929   1_455  S
C282        C283   1.416       .  A
C283        C284   1.412       .  A
C283       Br292   1.932       .  S
C284       Br288   1.931       .  S
C293        C294   1.424       .  A
C293        C298   1.419       .  A
C294        C295   1.414       .  A
C294       Br306   1.934       .  S
C295        C296   1.408       .  A
C295       Br310   1.933   1_556  S
C296        C299   1.503   1_556  S
C296        C297   1.411   1_655  A
C297        C298   1.418   1_455  A
C297       Br305   1.929       .  S
C298       Br309   1.930   1_655  S
C299        C300   1.414       .  A
C299        C304   1.409   1_655  A
C300        C301   1.418       .  A
C300       Br311   1.926       .  S
C301        C302   1.412   1_655  A
C301       Br307   1.928       .  S
C302        C303   1.417       .  A
C303        C304   1.411       .  A
C303       Br312   1.932       .  S
C304       Br308   1.933       .  S
C313        C314   1.416   1_455  A
C313        C318   1.408       .  A
C314        C315   1.399       .  A
C314       Br326   1.933       .  S
C315        C316   1.402       .  A
C315       Br330   1.933       .  S
C316        C319   1.477       .  S
C316        C317   1.412   1_655  A
C317        C318   1.410       .  A
C317       Br325   1.928       .  S
C318       Br329   1.929       .  S
C319        C320   1.411       .  A
C319        C324   1.406   1_565  A
C320        C321   1.407   1_565  A
C320       Br331   1.929       .  S
C321        C322   1.405       .  A
C321       Br327   1.928       .  S
C322        C323   1.410       .  A
C323        C324   1.403       .  A
C323       Br332   1.929       .  S
C324       Br328   1.930   1_645  S
C333        C334   1.422       .  A
C333        C338   1.419       .  A
C334        C335   1.406       .  A
C334       Br346   1.935   1_655  S
C335        C336   1.403       .  A
C335       Br350   1.933   1_655  S
C336        C339   1.489       .  S
C336        C337   1.410       .  A
C337        C338   1.414       .  A
C337       Br345   1.931       .  S
C338       Br349   1.931       .  S
C339        C340   1.410   1_655  A
C339        C344   1.406       .  A
C340        C341   1.411       .  A
C340       Br351   1.930       .  S
C341        C342   1.415       .  A
C341       Br347   1.930       .  S
C342        C343   1.419   1_455  A
C343        C344   1.408       .  A
C343       Br352   1.934       .  S
C344       Br348   1.932       .  S
C353        C354   1.415       .  A
C353        C358   1.410       .  A
C354        C355   1.404       .  A
C354       Br366   1.932       .  S
C355        C356   1.407       .  A
C355       Br370   1.934       .  S
C356        C359   1.486       .  S
C356        C357   1.411       .  A
C357        C358   1.412       .  A
C357       Br365   1.926       .  S
C358       Br369   1.928       .  S
C359        C360   1.410       .  A
C359        C364   1.405       .  A
C360        C361   1.413       .  A
C360       Br371   1.928       .  S
C361        C362   1.412       .  A
C361       Br367   1.928       .  S
C362        C363   1.419       .  A
C363        C364   1.405       .  A
C363       Br372   1.933   1_565  S
C364       Br368   1.935   1_565  S
C373        C374   1.416   1_545  A
C373        C378   1.411       .  A
C374        C375   1.402       .  A
C374       Br386   1.932       .  S
C375        C376   1.405       .  A
C375       Br390   1.931       .  S
C376        C379   1.489   1_655  S
C376        C377   1.415   1_565  A
C377        C378   1.415       .  A
C377       Br385   1.927   1_655  S
C378       Br389   1.926       .  S
C379        C380   1.409       .  A
C379        C384   1.413       .  A
C380        C381   1.403       .  A
C380       Br391   1.933   1_455  S
C381        C382   1.413       .  A
C381       Br387   1.931       .  S
C382        C383   1.410       .  A
C383        C384   1.413       .  A
C383       Br392   1.928       .  S
C384       Br388   1.928       .  S
C393        C394   1.423       .  A
C393        C398   1.419       .  A
C394        C395   1.412       .  A
C394       Br406   1.934       .  S
C395        C396   1.406       .  A
C395       Br410   1.932   1_565  S
C396        C399   1.502       .  S
C396        C397   1.412       .  A
C397        C398   1.418       .  A
C397       Br405   1.929       .  S
C398       Br409   1.926       .  S
C399        C400   1.412       .  A
C399        C404   1.409       .  A
C400        C401   1.416   1_565  A
C400       Br411   1.930   1_565  S
C401        C402   1.416   1_545  A
C401       Br407   1.930       .  S
C402        C403   1.418       .  A
C403        C404   1.413       .  A
C403       Br412   1.931       .  S
C404       Br408   1.930       .  S
C413        C414   1.416       .  A
C413        C418   1.416       .  A
C414        C415   1.418       .  A
C414       Br426   1.930       .  S
C415        C416   1.414       .  A
C415       Br430   1.930       .  S
C416        C419   1.512       .  S
C416        C417   1.414       .  A
C417        C418   1.417       .  A
C417       Br425   1.931       .  S
C418       Br429   1.930       .  S
C419        C420   1.417       .  A
C419        C424   1.413       .  A
C420        C421   1.418       .  A
C420       Br431   1.927       .  S
C421        C422   1.410       .  A
C421       Br427   1.925       .  S
C422        C423   1.411       .  A
C423        C424   1.414       .  A
C423       Br432   1.923       .  S
C424       Br428   1.930       .  S
