geometry optimzed in LAMMPS
_audit_creation_date              2020-12-01 
_audit_creation_method            'lammps2cif' 
_symmetry_space_group_name_H-M    'P1' 
_symmetry_Int_Tables_number       1 
_symmetry_cell_setting            triclinic 
loop_ 
_symmetry_equiv_pos_as_xyz 
  x,y,z 
_cell_length_a                    60.14799112 
_cell_length_b                    61.147584331560296 
_cell_length_c                    60.581274285284515 
_cell_angle_alpha                 89.5711517228161 
_cell_angle_beta                  90.10494472785825 
_cell_angle_gamma                 90.13705490384423 
loop_ 
_atom_site_label 
_atom_site_type_symbol 
_atom_site_fract_x 
_atom_site_fract_y 
_atom_site_fract_z 
_atom_site_charge 
C1          C  0.80309645  0.82206692  0.02370171     0.02700
C2          C  0.79740037  0.81040514  0.00437615    -0.13400
C3          C  0.80456224  0.81787652  0.98341169     0.00200
C4          C  0.81828213  0.83652664  0.98211422    -0.12000
C5          C  0.82393124  0.84818887  0.00101947     0.02700
C6          C  0.81570746  0.84135260  0.02144535    -0.11400
H7          H  0.78743330  0.79569646  0.00551995     0.08300
H8          H  0.82502017  0.84179871  0.96636813     0.05800
H9          H  0.81927196  0.85142071  0.03563656     0.05700
C10         C  0.76068779  0.20705801  0.02501306     0.02700
C11         C  0.74910200  0.21151736  0.00521644    -0.13400
C12         C  0.75627572  0.20253952  0.98506906     0.00200
C13         C  0.77535646  0.18926246  0.98492624    -0.12000
C14         C  0.78711155  0.18458123  0.00441909     0.02700
C15         C  0.77949669  0.19337520  0.02435304    -0.11400
H16         H  0.73468390  0.22208589  0.00543165     0.08300
H17         H  0.78152420  0.18309778  0.96938453     0.05800
H18         H  0.78807972  0.18921244  0.03953839     0.05700
C19         C  0.19548827  0.85158613  0.01732852     0.02700
C20         C  0.17782056  0.86649958  0.01659925    -0.13400
C21         C  0.17202414  0.87722847  0.99692095     0.00200
C22         C  0.18435138  0.87312319  0.97776250    -0.12000
C23         C  0.20214473  0.85818670  0.97805373     0.02700
C24         C  0.20766732  0.84751980  0.99800699    -0.11400
H25         H  0.16872808  0.87005093  0.03157650     0.08300
H26         H  0.17947173  0.88090913  0.96238604     0.05800
H27         H  0.22126863  0.83594641  0.99848024     0.05700
C28         C  0.78888950  0.04506462  0.79862506     0.02700
C29         C  0.80574789  0.04544681  0.81466392    -0.13400
C30         C  0.81370074  0.02601241  0.82412169     0.00200
C31         C  0.80471578  0.00601758  0.81718412    -0.12000
C32         C  0.78789788  0.00535491  0.80103086     0.02700
C33         C  0.77996348  0.02499942  0.79187190    -0.11400
H34         H  0.81222007  0.06101096  0.82026076     0.08300
H35         H  0.81120971  0.99089763  0.82402122     0.05800
H36         H  0.76692093  0.02470564  0.77951205     0.05700
C37         C  0.96033961  0.22395984  0.79486484     0.02700
C38         C  0.98114582  0.22826203  0.78536898    -0.13400
C39         C  0.00065545  0.22048316  0.79547869     0.00200
C40         C  0.99905992  0.20783932  0.81492490    -0.12000
C41         C  0.97837566  0.20315622  0.82452061     0.02700
C42         C  0.95908617  0.21132879  0.81434787    -0.11400
H43         H  0.98215820  0.23835710  0.77062768     0.08300
H44         H  0.01398103  0.20112962  0.82233969     0.05800
H45         H  0.94300124  0.20792898  0.82164518     0.05700
C46         C  0.96819937  0.85155393  0.79571680     0.02700
C47         C  0.98748475  0.84557949  0.78435551    -0.13400
C48         C  0.00818525  0.85402822  0.79072481     0.00200
C49         C  0.00955078  0.86812239  0.80887732    -0.12000
C50         C  0.99040310  0.87408920  0.82053949     0.02700
C51         C  0.96975396  0.86573882  0.81376741    -0.11400
H52         H  0.98630326  0.83486702  0.77022432     0.08300
H53         H  0.02565933  0.87408852  0.81418402     0.05800
H54         H  0.95475222  0.87046432  0.82236090     0.05700
C55         C  0.18552131  0.05178016  0.80938758     0.02700
C56         C  0.19058187  0.03236110  0.79839318    -0.13400
C57         C  0.17987619  0.01277427  0.80422683     0.00200
C58         C  0.16391726  0.01273904  0.82115873    -0.12000
C59         C  0.15896638  0.03203594  0.83250904     0.02700
C60         C  0.16975191  0.05147922  0.82640867    -0.11400
H61         H  0.20290802  0.03246526  0.78536681     0.08300
H62         H  0.15596514  0.99753922  0.82603923     0.05800
H63         H  0.16542263  0.06658777  0.83457580     0.05700
C64         C  0.96051423  0.81260192  0.17724744     0.02700
C65         C  0.95993431  0.83166605  0.16399185    -0.13400
C66         C  0.97950442  0.84334852  0.15909484     0.00200
C67         C  0.99973274  0.83576329  0.16764893    -0.12000
C68         C  0.00072277  0.81717678  0.18133173     0.02700
C69         C  0.98106539  0.80552860  0.18589236    -0.11400
H70         H  0.94415144  0.83774596  0.15793358     0.08300
H71         H  0.01498935  0.84410568  0.16315836     0.05800
H72         H  0.98178693  0.79099553  0.19618155     0.05700
C73         C  0.77866217  0.04558612  0.19802698     0.02700
C74         C  0.79627009  0.04578652  0.18277630    -0.13400
C75         C  0.80340812  0.02645924  0.17273933     0.00200
C76         C  0.79240107  0.00678872  0.17774459    -0.12000
C77         C  0.77440626  0.00627306  0.19256525     0.02700
C78         C  0.76769540  0.02577978  0.20274665    -0.11400
H79         H  0.80466342  0.06104010  0.17891665     0.08300
H80         H  0.79788938  0.99180336  0.17005776     0.05800
H81         H  0.75404968  0.02554624  0.21439133     0.05700
C82         C  0.95928756  0.21066638  0.22066676     0.02700
C83         C  0.97956579  0.21721428  0.22995355    -0.13400
C84         C  0.99961816  0.20951020  0.22122503     0.00200
C85         C  0.99917159  0.19446326  0.20374753    -0.12000
C86         C  0.97893365  0.18778131  0.19438908     0.02700
C87         C  0.95907763  0.19590347  0.20307445    -0.11400
H88         H  0.97975309  0.22919050  0.24305359     0.08300
H89         H  0.01466948  0.18870239  0.19682052     0.05800
H90         H  0.94331249  0.19071941  0.19614251     0.05700
Zr91       Zr  0.25390399  0.31153484  0.27931858     2.17500
O92         O  0.28208044  0.30992127  0.30827811    -0.51800
O93         O  0.25018385  0.35083381  0.27980111    -0.75000
O94         O  0.29003280  0.32277649  0.26565803    -0.81700
O95         O  0.20840634  0.29889533  0.32192746    -0.83500
O96         O  0.29457420  0.31007659  0.23082643    -0.79100
O97         O  0.24194836  0.31540427  0.31705782    -0.90800
O98         O  0.22522632  0.36070070  0.25347494    -0.76700
O99         O  0.24885411  0.32112582  0.24158907    -0.86200
O100        O  0.21523882  0.31846953  0.27529869    -0.85900
O101        O  0.26742858  0.28061737  0.25927194    -0.72700
O102        O  0.23561690  0.27856523  0.29083609    -0.84800
Zr103      Zr  0.20476845  0.26316987  0.22800142     2.26400
Zr104      Zr  0.26108837  0.29002664  0.22126010     2.06300
Zr105      Zr  0.19666572  0.28539338  0.28584295     2.10000
Zr106      Zr  0.21013710  0.32743029  0.23747135     1.78800
O107        O  0.18656070  0.25736510  0.31277236    -0.93600
O108        O  0.22225781  0.34844828  0.20536040    -0.41400
O109        O  0.19104832  0.29435085  0.24765818    -0.78000
O110        O  0.22220002  0.29660598  0.21634893    -0.96700
O111        O  0.24341175  0.25662145  0.23213997    -0.90000
O112        O  0.20943331  0.25421477  0.26599872    -0.92900
C113        C  0.23922161  0.36521384  0.26882453     1.00900
C114        C  0.22544569  0.30946053  0.32909587     1.13800
C115        C  0.30139963  0.32037404  0.24794131     1.04600
O116        O  0.26489409  0.31579480  0.19064166    -0.95000
O117        O  0.25297270  0.27026426  0.18731312    -0.90800
O118        O  0.21941130  0.25384068  0.19222167    -0.83900
C119        C  0.23674887  0.25823114  0.18069982     1.11200
O120        O  0.28117823  0.24516635  0.29335774    -0.97000
Zr121      Zr  0.24821421  0.24786283  0.27010576     1.88900
O122        O  0.20631290  0.22342627  0.23023010    -0.73600
O123        O  0.29514768  0.27061272  0.21217594    -0.52900
O124        O  0.27667613  0.22381070  0.25534988    -0.97600
O125        O  0.23875043  0.22938484  0.30462134    -0.54800
O126        O  0.23193999  0.21437033  0.25623688    -0.74200
C127        C  0.21735949  0.20934937  0.24164407     0.98200
O128        O  0.17779923  0.26646461  0.19793238    -0.63000
O129        O  0.16807891  0.31001788  0.29967132    -0.57800
O130        O  0.16779301  0.25439125  0.23991438    -0.94500
O131        O  0.16110243  0.27032886  0.27295822    -0.92900
O132        O  0.17855844  0.34742036  0.25220139    -0.93200
O133        O  0.18080101  0.33245479  0.21014544    -0.92000
C134        C  0.15496214  0.25932337  0.25594449     1.17000
H135        H  0.21066064  0.33049579  0.28468956     0.33000
H136        H  0.21904962  0.29931913  0.20094121     0.43800
H137        H  0.20078509  0.24151008  0.27020762     0.37300
H138        H  0.28312695  0.27871000  0.26190856     0.33800
H139        H  0.21519476  0.36294608  0.20707918     0.25600
H140        H  0.29034849  0.25547715  0.20894532     0.31600
H141        H  0.27756753  0.22762307  0.23946745     0.37500
H142        H  0.16705944  0.33611344  0.25492502     0.31900
H143        H  0.17441498  0.32491876  0.29829623     0.30800
H144        H  0.17570556  0.26460496  0.32256304     0.32500
H145        H  0.22300833  0.22496422  0.30286178     0.31400
H146        H  0.17413251  0.31774703  0.20843864     0.35400
H147        H  0.16491314  0.27434844  0.20413662     0.28200
H148        H  0.28905586  0.32460623  0.30848143     0.32400
H149        H  0.27978295  0.25741454  0.30385860     0.35300
H150        H  0.15600482  0.30965615  0.28856519     0.27900
H151        H  0.18439787  0.27718297  0.18748981     0.40700
H152        H  0.28112828  0.31749896  0.18853762     0.30800
H153        H  0.23827247  0.35120996  0.20794882     0.38400
H154        H  0.23840818  0.24111172  0.31579854     0.30300
H155        H  0.29973683  0.27672501  0.19769616     0.30300
H156        H  0.29374721  0.30004447  0.30262902     0.30600
C157        C  0.18843347  0.05338328  0.19836334     0.02700
C158        C  0.17039252  0.05224790  0.18360941    -0.13400
C159        C  0.16424066  0.03243483  0.17369496     0.00200
C160        C  0.17687422  0.01364449  0.17846930    -0.12000
C161        C  0.19520522  0.01451378  0.19292172     0.02700
C162        C  0.20081024  0.03442599  0.20296138    -0.11400
H163        H  0.16140287  0.06706459  0.17951920     0.08300
H164        H  0.17217795  0.99809110  0.17138227     0.05800
H165        H  0.21474683  0.03515703  0.21429375     0.05700
Zr166      Zr  0.25664395  0.76104948  0.27695164     2.17500
O167        O  0.28401958  0.73166202  0.27813566    -0.51800
O168        O  0.25244210  0.76088395  0.31668606    -0.75000
O169        O  0.29360310  0.77378311  0.28669529    -0.81700
O170        O  0.20885486  0.71997115  0.26646026    -0.83500
O171        O  0.30058594  0.80673241  0.27052712    -0.79100
O172        O  0.24314460  0.72424111  0.28172388    -0.90800
O173        O  0.22611221  0.78535323  0.32657283    -0.76700
O174        O  0.25232134  0.79849557  0.28582320    -0.86200
O175        O  0.21795482  0.76547755  0.28358897    -0.85900
O176        O  0.27087422  0.78027448  0.24535130    -0.72700
O177        O  0.23849879  0.74994726  0.24354368    -0.84800
Zr178      Zr  0.20855147  0.81282220  0.22726827     2.26400
Zr179      Zr  0.26541194  0.81815972  0.25399989     2.06300
Zr180      Zr  0.19967568  0.75544424  0.25004670     2.10000
Zr181      Zr  0.21362355  0.80299081  0.29228393     1.78800
O182        O  0.19121257  0.72716170  0.22321169    -0.93600
O183        O  0.22600990  0.83250969  0.31616070    -0.41400
O184        O  0.19440059  0.79326763  0.25887032    -0.78000
O185        O  0.22659009  0.82356442  0.26093570    -0.96700
O186        O  0.24708960  0.80806727  0.22051148    -0.90000
O187        O  0.21291290  0.77520163  0.21848958    -0.92900
C188        C  0.24045143  0.77041515  0.33119757     1.00900
C189        C  0.22586475  0.71281881  0.27716869     1.13800
C190        C  0.30639617  0.79003598  0.28218590     1.04600
O191        O  0.27592301  0.84354667  0.28304747    -0.95000
O192        O  0.25562855  0.85390018  0.23821010    -0.90800
O193        O  0.22244759  0.84952910  0.22070801    -0.83900
C194        C  0.23928104  0.86111763  0.22650615     1.11200
O195        O  0.27743030  0.73982131  0.21046536    -0.97000
Zr196      Zr  0.25164564  0.77043067  0.21229688     1.88900
O197        O  0.21255959  0.81196699  0.18745912    -0.73600
O198        O  0.29414865  0.82891918  0.22777333    -0.52900
O199        O  0.28597459  0.78431229  0.19616713    -0.97600
O200        O  0.24114279  0.74175672  0.18650508    -0.54800
O201        O  0.23953988  0.78785599  0.17830839    -0.74200
C202        C  0.22480054  0.80217123  0.17331088     0.98200
O203        O  0.18194980  0.84289893  0.22761772    -0.63000
O204        O  0.16869634  0.74579400  0.27415466    -0.57800
O205        O  0.17130036  0.80100204  0.21751875    -0.94500
O206        O  0.16555744  0.76694135  0.23165131    -0.92900
O207        O  0.17964116  0.79100813  0.31058610    -0.93200
O208        O  0.18752443  0.83335187  0.29372743    -0.92000
C209        C  0.15907078  0.78413740  0.22118638     1.17000
H210        H  0.21285028  0.75624875  0.29557653     0.33000
H211        H  0.22376127  0.83883903  0.26378059     0.43800
H212        H  0.20443736  0.77136844  0.20555049     0.37300
H213        H  0.28641617  0.77708085  0.24331145     0.33800
H214        H  0.21807407  0.82998545  0.33026713     0.25600
H215        H  0.30306217  0.84008135  0.23559323     0.31600
H216        H  0.28815349  0.77545331  0.18273293     0.37500
H217        H  0.16774216  0.79320520  0.29948042     0.31900
H218        H  0.15858039  0.75854060  0.27360140     0.30800
H219        H  0.17775911  0.71978524  0.22905611     0.32500
H220        H  0.24970189  0.74503869  0.17291568     0.31400
H221        H  0.18186074  0.83484396  0.27843444     0.35400
H222        H  0.17573700  0.84361128  0.21247634     0.28200
H223        H  0.29115329  0.73252622  0.29285820     0.32400
H224        H  0.27364424  0.73045090  0.22332743     0.35300
H225        H  0.16060235  0.73412048  0.26621138     0.27900
H226        H  0.16946620  0.83790949  0.23703831     0.40700
H227        H  0.27096692  0.85812773  0.27788266     0.30800
H228        H  0.24173524  0.82909628  0.31955226     0.38400
H229        H  0.22551337  0.74488473  0.18245576     0.30300
H230        H  0.30407667  0.81607303  0.22677492     0.30300
H231        H  0.29574733  0.73599804  0.26750674     0.30600
Zr232      Zr  0.75330559  0.25316281  0.23047742     2.17500
O233        O  0.78004653  0.25433330  0.20023259    -0.51800
O234        O  0.75277759  0.21346818  0.23249513    -0.75000
O235        O  0.79042462  0.24618273  0.24308616    -0.81700
O236        O  0.70687556  0.26179181  0.18795980    -0.83500
O237        O  0.79739550  0.26289426  0.27566095    -0.79100
O238        O  0.74095657  0.24688917  0.19350449    -0.90800
O239        O  0.72868842  0.20363335  0.25952243    -0.76700
O240        O  0.75096188  0.24585299  0.26888942    -0.86200
O241        O  0.71541652  0.24382743  0.23615371    -0.85900
O242        O  0.76584133  0.28623321  0.24755088    -0.72700
O243        O  0.73288903  0.28436930  0.21779936    -0.84800
Zr244      Zr  0.70367153  0.30150956  0.28045119     2.26400
Zr245      Zr  0.76201671  0.27921894  0.28641345     2.06300
Zr246      Zr  0.69477347  0.27532011  0.22429883     2.10000
Zr247      Zr  0.71300269  0.23703058  0.27477220     1.78800
O248        O  0.68003928  0.29958928  0.19582642    -0.93600
O249        O  0.72913548  0.21835975  0.30668567    -0.41400
O250        O  0.69159276  0.26827268  0.26324313    -0.78000
O251        O  0.72376143  0.26996628  0.29326690    -0.96700
O252        O  0.74149267  0.31080274  0.27460213    -0.90000
O253        O  0.70616359  0.30857323  0.24192269    -0.92900
C254        C  0.74275013  0.19901621  0.24433083     1.00900
C255        C  0.72437567  0.25170493  0.18116443     1.13800
C256        C  0.80332965  0.25138287  0.25900823     1.04600
O257        O  0.77595916  0.25669148  0.31668636    -0.95000
O258        O  0.75206696  0.29463684  0.32207388    -0.90800
O259        O  0.71749490  0.30854171  0.31708735    -0.83900
C260        C  0.73471465  0.30472068  0.32893831     1.11200
O261        O  0.77009960  0.32019235  0.20515186    -0.97000
Zr262      Zr  0.74428598  0.31719570  0.23593801     1.88900
O263        O  0.70459802  0.34132187  0.27711306    -0.73600
O264        O  0.78906746  0.30813743  0.29294374    -0.52900
O265        O  0.77757265  0.33715520  0.24687006    -0.97600
O266        O  0.73005655  0.33743090  0.20406856    -0.54800
O267        O  0.72993735  0.35093242  0.25118233    -0.74200
C268        C  0.71537319  0.35569194  0.26578746     0.98200
O269        O  0.67437135  0.30474243  0.30809682    -0.63000
O270        O  0.66719595  0.24730406  0.21607256    -0.57800
O271        O  0.66516869  0.30410921  0.27058911    -0.94500
O272        O  0.65897463  0.28981889  0.23668695    -0.92900
O273        O  0.68027914  0.21577955  0.26470749    -0.93200
O274        O  0.68726655  0.23081970  0.30520570    -0.92000
C275        C  0.65241317  0.29932398  0.25440523     1.17000
H276        H  0.71120257  0.23106834  0.22772535     0.33000
H277        H  0.72129145  0.26764841  0.30879486     0.43800
H278        H  0.69662920  0.32056539  0.23756391     0.37300
H279        H  0.78120155  0.28902734  0.24384141     0.33800
H280        H  0.74331442  0.21218581  0.30131831     0.25600
H281        H  0.79950887  0.30180588  0.30389619     0.31600
H282        H  0.77360387  0.34425269  0.26095851     0.37500
H283        H  0.68310631  0.20096025  0.27078016     0.31900
H284        H  0.67540151  0.23576812  0.20813767     0.30800
H285        H  0.66780275  0.29115322  0.18896601     0.32500
H286        H  0.72697906  0.35240669  0.20932678     0.31400
H287        H  0.68799000  0.24431848  0.31409684     0.35400
H288        H  0.67786683  0.29385197  0.31976810     0.28200
H289        H  0.78691844  0.23963632  0.19995792     0.32400
H290        H  0.76894225  0.30595784  0.19753572     0.35300
H291        H  0.66359260  0.24067275  0.23058718     0.27900
H292        H  0.67652020  0.31919344  0.31508185     0.40700
H293        H  0.77548128  0.24155560  0.31101855     0.30800
H294        H  0.73369604  0.23017114  0.31683415     0.38400
H295        H  0.71520537  0.33105804  0.20116441     0.30300
H296        H  0.79778194  0.30912136  0.27912751     0.30300
H297        H  0.79207182  0.26432816  0.20502234     0.30600
Zr298      Zr  0.70921931  0.75176859  0.28106881     2.17500
O299        O  0.67939450  0.72480429  0.27812430    -0.51800
O300        O  0.70972856  0.75225253  0.32138850    -0.75000
O301        O  0.72223496  0.71505671  0.28835521    -0.81700
O302        O  0.66677690  0.79764589  0.27285775    -0.83500
O303        O  0.75564152  0.70974557  0.27182215    -0.79100
O304        O  0.67151281  0.76329663  0.28663574    -0.90800
O305        O  0.73632731  0.77607349  0.33248385    -0.76700
O306        O  0.74754906  0.75477894  0.28963166    -0.86200
O307        O  0.71412898  0.78898013  0.29099773    -0.85900
O308        O  0.72798059  0.74118057  0.24790195    -0.72700
O309        O  0.69783295  0.77261797  0.24927080    -0.84800
Zr310      Zr  0.76144894  0.80365706  0.23555032     2.26400
Zr311      Zr  0.76678886  0.74518893  0.25644920     2.06300
Zr312      Zr  0.70337676  0.81012745  0.25921923     2.10000
Zr313      Zr  0.75264566  0.79201073  0.29944471     1.78800
O314        O  0.67507685  0.82291287  0.23344376    -0.93600
O315        O  0.78382787  0.77583381  0.31945776    -0.41400
O316        O  0.74204550  0.81418983  0.26827273    -0.78000
O317        O  0.77297666  0.78247583  0.26692111    -0.96700
O318        O  0.75628319  0.76670183  0.22509243    -0.90000
O319        O  0.72308096  0.80045956  0.22644513    -0.92900
C320        C  0.72083729  0.76216876  0.33648826     1.00900
C321        C  0.65948226  0.78005455  0.28232745     1.13800
C322        C  0.73874975  0.70301218  0.28297762     1.04600
O323        O  0.79718055  0.73471553  0.28091011    -0.95000
O324        O  0.80161109  0.75527267  0.23805573    -0.90800
O325        O  0.79769375  0.79025567  0.22565689    -0.83900
C326        C  0.80875865  0.77247064  0.22791563     1.11200
O327        O  0.69036030  0.73586118  0.20682134    -0.97000
Zr328      Zr  0.71801739  0.76331092  0.21651864     1.88900
O329        O  0.76293460  0.80258298  0.19564587    -0.73600
O330        O  0.77461125  0.71746008  0.22885923    -0.52900
O331        O  0.73231313  0.73186074  0.19660525    -0.97600
O332        O  0.68542870  0.77673048  0.19670147    -0.54800
O333        O  0.73520240  0.78011134  0.18405993    -0.74200
C334        C  0.75173649  0.79298393  0.18048678     0.98200
O335        O  0.79012358  0.83078115  0.24345227    -0.63000
O336        O  0.69335929  0.83716185  0.28677125    -0.57800
O337        O  0.74893704  0.84004964  0.22643005    -0.94500
O338        O  0.71596176  0.84554831  0.24384886    -0.92900
O339        O  0.74022521  0.82381243  0.32001650    -0.93200
O340        O  0.78288032  0.81734561  0.30735912    -0.92000
C341        C  0.73253770  0.85216823  0.23201413     1.17000
H342        H  0.70499546  0.79276546  0.30349830     0.33000
H343        H  0.78864586  0.78482562  0.26972548     0.43800
H344        H  0.71902734  0.80999614  0.21426993     0.37300
H345        H  0.72455268  0.72610689  0.24455815     0.33800
H346        H  0.78038493  0.77794869  0.33527334     0.25600
H347        H  0.78264103  0.70576481  0.23694329     0.31600
H348        H  0.73867570  0.73783789  0.18275984     0.37500
H349        H  0.72616607  0.81921632  0.32717027     0.31900
H350        H  0.70731412  0.84528063  0.28966248     0.30800
H351        H  0.66564116  0.83286110  0.24218424     0.32500
H352        H  0.69131342  0.78680498  0.18524740     0.31400
H353        H  0.78074702  0.82958836  0.29679017     0.35400
H354        H  0.78278088  0.84166931  0.25299543     0.28200
H355        H  0.67809201  0.71813277  0.29301549     0.32400
H356        H  0.68129622  0.73399336  0.22032996     0.35300
H357        H  0.68382278  0.84774972  0.27874480     0.27900
H358        H  0.80064004  0.82322069  0.25351044     0.40700
H359        H  0.80816571  0.72748492  0.27126001     0.30800
H360        H  0.78231883  0.75987868  0.31721289     0.38400
H361        H  0.67780954  0.78637030  0.20732078     0.30300
H362        H  0.75996589  0.71094863  0.22530750     0.30300
H363        H  0.68517662  0.71300847  0.26862185     0.30600
C364        C  0.19997706  0.21350317  0.02817896     0.02700
C365        C  0.20756775  0.22225787  0.00805730    -0.13400
C366        C  0.19532789  0.21929132  0.98855510     0.00200
C367        C  0.17529413  0.20731037  0.98932078    -0.12000
C368        C  0.16766607  0.19798521  0.00919396     0.02700
C369        C  0.18014080  0.20128022  0.02856003    -0.11400
H370        H  0.22290310  0.23158494  0.00762190     0.08300
H371        H  0.16610050  0.20449087  0.97421079     0.05800
H372        H  0.17408534  0.19479992  0.04412584     0.05700
Zr373      Zr  0.20520641  0.25824699  0.78082367     2.17500
O374        O  0.17709576  0.25066944  0.80892171    -0.51800
O375        O  0.21197506  0.21927354  0.77982418    -0.75000
O376        O  0.16870630  0.25011257  0.76607349    -0.81700
O377        O  0.24967646  0.26901733  0.82497693    -0.83500
O378        O  0.16226144  0.26770705  0.73359116    -0.79100
O379        O  0.21481191  0.25579538  0.81953762    -0.90800
O380        O  0.23713344  0.21109113  0.75340005    -0.76700
O381        O  0.21061948  0.25139674  0.74263145    -0.86200
O382        O  0.24399058  0.25214375  0.77715590    -0.85900
O383        O  0.19131612  0.29037032  0.76245451    -0.72700
O384        O  0.22241741  0.29087200  0.79435888    -0.84800
Zr385      Zr  0.25402497  0.31030060  0.73283638     2.26400
Zr386      Zr  0.19798615  0.28387247  0.72392307     2.06300
Zr387      Zr  0.26149419  0.28491313  0.78976248     2.10000
Zr388      Zr  0.24961239  0.24591596  0.73882131     1.78800
O389        O  0.27042174  0.31187053  0.81780949    -0.93600
O390        O  0.23867967  0.22554790  0.70606732    -0.41400
O391        O  0.26773974  0.27837691  0.75134381    -0.78000
O392        O  0.23707775  0.27764504  0.71913605    -0.96700
O393        O  0.21532912  0.31682215  0.73656172    -0.90000
O394        O  0.24861652  0.31703980  0.77107436    -0.92900
C395        C  0.22366779  0.20565026  0.76885206     1.00900
C396        C  0.23169531  0.25982729  0.83185014     1.13800
C397        C  0.15613269  0.25554153  0.74984291     1.04600
O398        O  0.18959811  0.25709151  0.69551618    -0.95000
O399        O  0.20872046  0.30038951  0.68872149    -0.90800
O400        O  0.24189685  0.31685949  0.69518516    -0.83900
C401        C  0.22567655  0.31166676  0.68247659     1.11200
O402        O  0.17866195  0.32232822  0.80077875    -0.97000
Zr403      Zr  0.20965205  0.32271969  0.77494363     1.88900
O404        O  0.25085276  0.34920428  0.73725587    -0.73600
O405        O  0.16955641  0.30973133  0.71195066    -0.52900
O406        O  0.17839027  0.34324227  0.75986249    -0.97600
O407        O  0.21820765  0.34227480  0.80886165    -0.54800
O408        O  0.22510996  0.35739780  0.76310108    -0.74200
C409        C  0.24017355  0.36278117  0.74917462     0.98200
O410        O  0.28454246  0.31660609  0.70703137    -0.63000
O411        O  0.29124995  0.26049369  0.80162753    -0.57800
O412        O  0.29177620  0.31569914  0.74490006    -0.94500
O413        O  0.29739312  0.30016814  0.77860085    -0.92900
O414        O  0.28300770  0.22714698  0.75144544    -0.93200
O415        O  0.27917280  0.24514213  0.71145092    -0.92000
C416        C  0.30413383  0.31074366  0.76143106     1.17000
H417        H  0.24881632  0.23991650  0.78609635     0.33000
H418        H  0.24066275  0.27559889  0.70376069     0.43800
H419        H  0.25708340  0.32953995  0.77598364     0.37300
H420        H  0.17562966  0.29222714  0.76530013     0.33800
H421        H  0.22472259  0.21797906  0.71023568     0.25600
H422        H  0.16088699  0.30180926  0.70061445     0.31600
H423        H  0.17695226  0.35608708  0.76961500     0.37500
H424        H  0.28227384  0.22741787  0.76775628     0.31900
H425        H  0.29713735  0.26711327  0.81531763     0.30800
H426        H  0.28235920  0.30502864  0.82674522     0.32500
H427        H  0.21700647  0.35799885  0.80502518     0.31400
H428        H  0.28527051  0.26019953  0.71133040     0.35400
H429        H  0.28263766  0.30574797  0.69512730     0.28200
H430        H  0.17095418  0.23602968  0.80550529     0.32400
H431        H  0.18038086  0.30845306  0.80913875     0.35300
H432        H  0.28374067  0.24693057  0.80665811     0.27900
H433        H  0.28162902  0.33100118  0.70001134     0.40700
H434        H  0.18408866  0.24404837  0.70362356     0.30800
H435        H  0.23399512  0.23678608  0.69518209     0.38400
H436        H  0.23429090  0.33985949  0.81130590     0.30300
H437        H  0.15932139  0.31100024  0.72465555     0.30300
H438        H  0.16479138  0.26105644  0.80608339     0.30600
Zr439      Zr  0.21057949  0.80704969  0.77726822     2.17500
O440        O  0.18254997  0.80430982  0.80624772    -0.51800
O441        O  0.21034131  0.84621554  0.77298846    -0.75000
O442        O  0.22467007  0.81927938  0.81249570    -0.81700
O443        O  0.16697209  0.79619309  0.73271004    -0.83500
O444        O  0.25873156  0.80416922  0.81803243    -0.79100
O445        O  0.17310525  0.81354553  0.76523599    -0.90800
O446        O  0.23496318  0.85591271  0.74632301    -0.76700
O447        O  0.24836169  0.81655761  0.77131657    -0.86200
O448        O  0.21365564  0.81341822  0.73859884    -0.85900
O449        O  0.23111496  0.77628547  0.79088203    -0.72700
O450        O  0.19838370  0.77387430  0.76027229    -0.84800
Zr451      Zr  0.26109804  0.75888429  0.72784533     2.26400
Zr452      Zr  0.26920599  0.78566455  0.78386109     2.06300
Zr453      Zr  0.20225811  0.78013299  0.72146906     2.10000
Zr454      Zr  0.25160085  0.82246863  0.73263386     1.78800
O455        O  0.17444251  0.75186214  0.71507796    -0.93600
O456        O  0.28315173  0.84437716  0.74475606    -0.41400
O457        O  0.24032911  0.78959434  0.71436756    -0.78000
O458        O  0.27348901  0.79200469  0.74491209    -0.96700
O459        O  0.25794269  0.75246788  0.76641417    -0.90000
O460        O  0.22322304  0.74935479  0.73397592    -0.92900
C461        C  0.22040111  0.86047994  0.76104473     1.00900
C462        C  0.16069606  0.80803238  0.74899211     1.13800
C463        C  0.24195416  0.81556485  0.82434631     1.04600
O464        O  0.29833408  0.81311964  0.78776740    -0.95000
O465        O  0.30371268  0.76655853  0.77502316    -0.90800
O466        O  0.29781001  0.75044517  0.74186204    -0.83900
C467        C  0.30991191  0.75456656  0.75880361     1.11200
O468        O  0.19215468  0.74169970  0.80161277    -0.97000
Zr469      Zr  0.22008102  0.74340921  0.77262143     1.88900
O470        O  0.26137300  0.71979690  0.73209278    -0.73600
O471        O  0.28056670  0.76418506  0.81596644    -0.52900
O472        O  0.23560448  0.72495693  0.80487878    -0.97600
O473        O  0.18807488  0.72066486  0.76339352    -0.54800
O474        O  0.23673229  0.71018327  0.75874506    -0.74200
C475        C  0.25145511  0.70562409  0.74422088     0.98200
O476        O  0.28825085  0.75976747  0.69798403    -0.63000
O477        O  0.18684407  0.80334625  0.69243369    -0.57800
O478        O  0.24757793  0.74885764  0.69160103    -0.94500
O479        O  0.21300099  0.76301536  0.68673013    -0.92900
O480        O  0.23845373  0.84225553  0.70016032    -0.93200
O481        O  0.27886428  0.82496787  0.70301076    -0.92000
C482        C  0.23007272  0.75235893  0.67993750     1.17000
H483        H  0.20416028  0.82527117  0.73377091     0.33000
H484        H  0.28892814  0.79467298  0.74154115     0.43800
H485        H  0.21900604  0.73631057  0.72583771     0.37300
H486        H  0.22866382  0.77442070  0.80650963     0.33800
H487        H  0.28262707  0.85768295  0.73535454     0.25600
H488        H  0.28299976  0.74923034  0.81030508     0.31600
H489        H  0.25018880  0.71931858  0.79996862     0.37500
H490        H  0.23519028  0.83074010  0.68921042     0.31900
H491        H  0.19993658  0.80950852  0.68470812     0.30800
H492        H  0.16208279  0.75947730  0.70744884     0.32500
H493        H  0.19420604  0.70726289  0.75669286     0.31400
H494        H  0.28893918  0.81239006  0.70538755     0.35400
H495        H  0.30097972  0.76841847  0.70356424     0.28200
H496        H  0.18189781  0.81896730  0.81306595     0.32400
H497        H  0.18293281  0.75490874  0.79922225     0.35300
H498        H  0.18012402  0.79309403  0.68173461     0.27900
H499        H  0.29389364  0.74459465  0.69703928     0.40700
H500        H  0.29134355  0.82518629  0.79604546     0.30800
H501        H  0.27899536  0.84954582  0.75963618     0.38400
H502        H  0.18071923  0.72842348  0.75100839     0.30300
H503        H  0.29562269  0.76963719  0.81967466     0.30300
H504        H  0.18912113  0.79468000  0.81773105     0.30600
Zr505      Zr  0.75405383  0.25291259  0.78020039     2.17500
O506        O  0.78279341  0.25602216  0.80849013    -0.51800
O507        O  0.75353214  0.21335271  0.77748887    -0.75000
O508        O  0.74079185  0.24255289  0.81656947    -0.81700
O509        O  0.79686242  0.26545454  0.73499335    -0.83500
O510        O  0.70781847  0.25953256  0.82254210    -0.79100
O511        O  0.79202988  0.24819987  0.76800904    -0.90800
O512        O  0.72665132  0.20390274  0.75298727    -0.76700
O513        O  0.71561508  0.24475498  0.77616031    -0.86200
O514        O  0.74906552  0.24483657  0.74214297    -0.85900
O515        O  0.73493491  0.28491504  0.79268461    -0.72700
O516        O  0.76584427  0.28527175  0.76088597    -0.84800
Zr517      Zr  0.70293357  0.30125649  0.72995826     2.26400
Zr518      Zr  0.69624858  0.27677977  0.78759857     2.06300
Zr519      Zr  0.76023473  0.27709633  0.72265972     2.10000
Zr520      Zr  0.71044346  0.23724519  0.73810282     1.78800
O521        O  0.78830048  0.30192715  0.70792029    -0.93600
O522        O  0.67930644  0.21627300  0.75293108    -0.41400
O523        O  0.72162974  0.26907829  0.71757814    -0.78000
O524        O  0.69034761  0.26905739  0.74927030    -0.96700
O525        O  0.70739006  0.30920445  0.76803205    -0.90000
O526        O  0.74127841  0.30936010  0.73418131    -0.92900
C527        C  0.74213602  0.19913140  0.76679623     1.00900
C528        C  0.80417377  0.25479103  0.75184306     1.13800
C529        C  0.72425846  0.24752856  0.82889886     1.04600
O530        O  0.66718531  0.24987110  0.79476823    -0.95000
O531        O  0.66190831  0.29585807  0.77736348    -0.90800
O532        O  0.66699803  0.31114013  0.74342879    -0.83900
C533        C  0.65532427  0.30727852  0.76064769     1.11200
O534        O  0.77343379  0.32127067  0.80144044    -0.97000
Zr535      Zr  0.74572704  0.31697448  0.77241709     1.88900
O536        O  0.70670550  0.34082736  0.72969757    -0.73600
O537        O  0.68451629  0.29947982  0.81834583    -0.52900
O538        O  0.72916287  0.33497921  0.80411817    -0.97600
O539        O  0.77710183  0.33980892  0.76123314    -0.54800
O540        O  0.73124962  0.35044776  0.75635401    -0.74200
C541        C  0.71752814  0.35513707  0.74081784     0.98200
O542        O  0.67132870  0.30195487  0.70458949    -0.63000
O543        O  0.77030217  0.24793349  0.69747155    -0.57800
O544        O  0.71411012  0.30553320  0.69197091    -0.94500
O545        O  0.74854205  0.29143059  0.68677831    -0.92900
O546        O  0.72028055  0.21586345  0.70580162    -0.93200
O547        O  0.68131137  0.23530418  0.71020193    -0.92000
C548        C  0.73087554  0.30107885  0.67981454     1.17000
H549        H  0.75807966  0.23255698  0.73772992     0.33000
H550        H  0.67468696  0.26667463  0.74645167     0.43800
H551        H  0.74572479  0.32159775  0.72504424     0.37300
H552        H  0.73806158  0.28730401  0.80811728     0.33800
H553        H  0.67911313  0.20265446  0.74418717     0.25600
H554        H  0.69794580  0.30118895  0.82764853     0.31600
H555        H  0.71696921  0.34401688  0.79795869     0.37500
H556        H  0.73543862  0.21033614  0.70885869     0.31900
H557        H  0.75645452  0.24478459  0.68921699     0.30800
H558        H  0.79124851  0.31230668  0.72004559     0.32500
H559        H  0.77481818  0.34263385  0.74527610     0.31400
H560        H  0.68001941  0.25044132  0.70442665     0.35400
H561        H  0.67239120  0.31610973  0.69659313     0.28200
H562        H  0.78426822  0.24120060  0.81501690     0.32400
H563        H  0.77692949  0.30615669  0.80625242     0.35300
H564        H  0.78018910  0.25504636  0.68650613     0.27900
H565        H  0.67438369  0.29069986  0.69333646     0.40700
H566        H  0.67510361  0.23694903  0.80078111     0.30800
H567        H  0.68421727  0.21152697  0.76781952     0.38400
H568        H  0.79017532  0.33001731  0.76184259     0.30300
H569        H  0.68216900  0.31418502  0.81181270     0.30300
H570        H  0.77627552  0.26505182  0.82033239     0.30600
Zr571      Zr  0.75822805  0.80037625  0.78567265     2.17500
O572        O  0.75507979  0.82658513  0.81567754    -0.51800
O573        O  0.79813971  0.80457234  0.78148198    -0.75000
O574        O  0.77076809  0.78505674  0.82037699    -0.81700
O575        O  0.74260826  0.84448674  0.74345648    -0.83500
O576        O  0.75627869  0.75099821  0.82510578    -0.79100
O577        O  0.76111334  0.83830144  0.77564566    -0.90800
O578        O  0.80893764  0.78383408  0.75255691    -0.76700
O579        O  0.77030254  0.76436613  0.77804417    -0.86200
O580        O  0.76489822  0.80010166  0.74706857    -0.85900
O581        O  0.72803432  0.77753756  0.79778190    -0.72700
O582        O  0.72361423  0.81038304  0.76868089    -0.84800
Zr583      Zr  0.71259165  0.74940735  0.73343607     2.26400
Zr584      Zr  0.74020461  0.74119283  0.78934578     2.06300
Zr585      Zr  0.73037540  0.80901674  0.72980770     2.10000
Zr586      Zr  0.77669664  0.76409614  0.73929831     1.78800
O587        O  0.69856916  0.83252044  0.72228712    -0.93600
O588        O  0.80495793  0.73744799  0.74975785    -0.41400
O589        O  0.74237601  0.77267929  0.72132359    -0.78000
O590        O  0.74742461  0.73990220  0.75043702    -0.96700
O591        O  0.70550788  0.75008908  0.77197395    -0.90000
O592        O  0.70023518  0.78567364  0.74055435    -0.92900
C593        C  0.81291986  0.79737489  0.76813505     1.00900
C594        C  0.75403485  0.85087929  0.76018262     1.13800
C595        C  0.76729025  0.76771948  0.83190018     1.04600
O596        O  0.77150768  0.71669248  0.79538827    -0.95000
O597        O  0.72782490  0.70525459  0.77682747    -0.90800
O598        O  0.71357136  0.71092253  0.74248076    -0.83900
C599        C  0.71939328  0.69850452  0.75859341     1.11200
O600        O  0.68874271  0.80911422  0.81180772    -0.97000
Zr601      Zr  0.69385916  0.78644180  0.77931673     1.88900
O602        O  0.67210827  0.74899613  0.73526427    -0.73600
O603        O  0.71659164  0.72441531  0.81738115    -0.52900
O604        O  0.67395758  0.76502801  0.80698487    -0.97600
O605        O  0.67047544  0.81844996  0.77323034    -0.54800
O606        O  0.66058898  0.77164312  0.76236554    -0.74200
C607        C  0.65680335  0.75807479  0.74675454     0.98200
O608        O  0.70743884  0.71945722  0.70748044    -0.63000
O609        O  0.75414085  0.82834450  0.70357816    -0.57800
O610        O  0.71124237  0.76165550  0.69538641    -0.94500
O611        O  0.71861798  0.79805581  0.69296022    -0.92900
O612        O  0.79129253  0.78171644  0.70615698    -0.93200
O613        O  0.78178731  0.73718210  0.71031598    -0.92000
C614        C  0.71315281  0.77960666  0.68451115     1.17000
H615        H  0.77604814  0.81071217  0.74280474     0.33000
H616        H  0.75210171  0.72542509  0.74624498     0.43800
H617        H  0.68710690  0.78938340  0.73212014     0.37300
H618        H  0.72581748  0.77908393  0.81348453     0.33800
H619        H  0.80913360  0.74126390  0.76507748     0.25600
H620        H  0.72643918  0.71401616  0.82527951     0.31600
H621        H  0.68417876  0.76427446  0.81978388     0.37500
H622        H  0.80619415  0.77521190  0.70408440     0.31900
H623        H  0.75917741  0.81704314  0.69310928     0.30800
H624        H  0.69790756  0.83384977  0.70600141     0.32500
H625        H  0.66525167  0.81719251  0.75778724     0.31400
H626        H  0.76883571  0.73927367  0.70040780     0.35400
H627        H  0.69450090  0.72345229  0.69817813     0.28200
H628        H  0.77030673  0.82809075  0.82174741     0.32400
H629        H  0.70358307  0.81557552  0.81461795     0.35300
H630        H  0.74388474  0.83769880  0.69489729     0.27900
H631        H  0.72043571  0.72006476  0.69747318     0.40700
H632        H  0.76505491  0.70370489  0.80285875     0.30800
H633        H  0.79680147  0.72343937  0.75127320     0.38400
H634        H  0.68091718  0.83099540  0.77294589     0.30300
H635        H  0.71376338  0.73615692  0.82817019     0.30300
H636        H  0.74649870  0.81903582  0.82741602     0.30600
C637        C  0.50059147  0.70548797  0.71527610     0.02700
C638        C  0.48200082  0.70950589  0.72871548    -0.13400
C639        C  0.46098963  0.70086369  0.72327819     0.00200
C640        C  0.45889732  0.68781823  0.70433864    -0.12000
C641        C  0.47732540  0.68327321  0.69103597     0.02700
C642        C  0.49806770  0.69217254  0.69661454    -0.11400
H643        H  0.48379955  0.71972623  0.74312659     0.08300
H644        H  0.44271743  0.68172258  0.69943335     0.05800
H645        H  0.51242410  0.68834239  0.68659991     0.05700
C646        C  0.29260650  0.51233970  0.71553912     0.02700
C647        C  0.30735611  0.51015576  0.69776666    -0.13400
C648        C  0.31524362  0.52863764  0.68643239     0.00200
C649        C  0.30846664  0.54941334  0.69333116    -0.12000
C650        C  0.29361518  0.55161082  0.71096809     0.02700
C651        C  0.28546671  0.53307143  0.72185320    -0.11400
H652        H  0.31221875  0.49398812  0.69241454     0.08300
H653        H  0.31477249  0.56392728  0.68506629     0.05800
H654        H  0.27417854  0.53482906  0.73565978     0.05700
C655        C  0.50130441  0.34480486  0.71709207     0.02700
C656        C  0.50197107  0.35632898  0.69693158    -0.13400
C657        C  0.48233831  0.36158161  0.68562101     0.00200
C658        C  0.46188592  0.35493392  0.69475044    -0.12000
C659        C  0.46085937  0.34291305  0.71471261     0.02700
C660        C  0.48081457  0.33783354  0.72570570    -0.11400
H661        H  0.51782258  0.36173916  0.69036771     0.08300
H662        H  0.44666884  0.35946422  0.68635018     0.05800
H663        H  0.48050058  0.32868825  0.74108133     0.05700
C664        C  0.67685109  0.51001677  0.70465357     0.02700
C665        C  0.68225196  0.52946341  0.71562706    -0.13400
C666        C  0.67168426  0.54922921  0.70985675     0.00200
C667        C  0.65487943  0.54892488  0.69358776    -0.12000
C668        C  0.64952578  0.52959943  0.68236262     0.02700
C669        C  0.66058998  0.51026107  0.68809051    -0.11400
H670        H  0.69539688  0.52927479  0.72786226     0.08300
H671        H  0.64637208  0.56390178  0.68914104     0.05800
H672        H  0.65619145  0.49512500  0.67996002     0.05700
C673        C  0.49771114  0.34990156  0.28772386     0.02700
C674        C  0.47770731  0.34720273  0.27610311    -0.13400
C675        C  0.45807551  0.35701708  0.28371967     0.00200
C676        C  0.45874575  0.36982714  0.30292716    -0.12000
C677        C  0.47871522  0.37299831  0.31445172     0.02700
C678        C  0.49806379  0.36282027  0.30678700    -0.11400
H679        H  0.47737728  0.33725274  0.26137904     0.08300
H680        H  0.44366573  0.37737715  0.30892040     0.05800
H681        H  0.51353230  0.36488586  0.31574036     0.05700
C682        C  0.68188084  0.51147020  0.30876114     0.02700
C683        C  0.69459806  0.53040477  0.30441577    -0.13400
C684        C  0.68903278  0.55043307  0.31423635     0.00200
C685        C  0.67057984  0.55147771  0.32830648    -0.12000
C686        C  0.65782973  0.53283386  0.33299966     0.02700
C687        C  0.66353796  0.51292741  0.32313122    -0.11400
H688        H  0.70877015  0.52960408  0.29345042     0.08300
H689        H  0.66598187  0.56701110  0.33547719     0.05800
H690        H  0.65408603  0.49836025  0.32724289     0.05700
C691        C  0.50129550  0.74452317  0.32553186     0.02700
C692        C  0.48141951  0.75536914  0.31985272    -0.13400
C693        C  0.46080806  0.74757121  0.32769427     0.00200
C694        C  0.46020446  0.72863618  0.34094822    -0.12000
C695        C  0.47979264  0.71766402  0.34685639     0.02700
C696        C  0.50022837  0.72590738  0.33933044    -0.11400
H697        H  0.48193854  0.76970776  0.30925993     0.08300
H698        H  0.44429866  0.72214523  0.34627572     0.05800
H699        H  0.51545113  0.71790159  0.34446113     0.05700
C700        C  0.27457530  0.52041921  0.31054526     0.02700
C701        C  0.29218697  0.52033308  0.32562850    -0.13400
C702        C  0.30026740  0.53976753  0.33464176     0.00200
C703        C  0.29093697  0.55966241  0.32780910    -0.12000
C704        C  0.27378002  0.56028800  0.31196872     0.02700
C705        C  0.26556341  0.54044580  0.30339393    -0.11400
H706        H  0.29960642  0.50485755  0.33036972     0.08300
H707        H  0.29657637  0.57467008  0.33539622     0.05800
H708        H  0.25212455  0.54050869  0.29147307     0.05700
C709        C  0.66632246  0.73646339  0.49236069     0.02700
C710        C  0.64964910  0.72040226  0.49350391    -0.13400
C711        C  0.64025989  0.71399469  0.51373199     0.00200
C712        C  0.64765525  0.72413858  0.53316182    -0.12000
C713        C  0.66444791  0.74025406  0.53246117     0.02700
C714        C  0.67387805  0.74613471  0.51196923    -0.11400
H715        H  0.64451131  0.71224974  0.47851612     0.08300
H716        H  0.64055098  0.71928268  0.54887390     0.05800
H717        H  0.68665548  0.75863241  0.51121367     0.05700
C718        C  0.69422778  0.34338923  0.48394557     0.02700
C719        C  0.67558199  0.35731329  0.48420477    -0.13400
C720        C  0.66704249  0.36546024  0.50410547     0.00200
C721        C  0.67751290  0.35930570  0.52395620    -0.12000
C722        C  0.69614827  0.34539537  0.52407493     0.02700
C723        C  0.70444963  0.33753580  0.50399387    -0.11400
H724        H  0.66770137  0.36184772  0.46876365     0.08300
H725        H  0.67123429  0.36543021  0.53945923     0.05800
H726        H  0.71874939  0.32678980  0.50400514     0.05700
C727        C  0.26557881  0.70986081  0.48511878     0.02700
C728        C  0.25487449  0.71561895  0.50490609    -0.13400
C729        C  0.26109939  0.70574037  0.52510449     0.00200
C730        C  0.27861519  0.69050081  0.52525021    -0.12000
C731        C  0.28989360  0.68508542  0.50580922     0.02700
C732        C  0.28309581  0.69468758  0.48581262    -0.11400
H733        H  0.24135146  0.72727722  0.50445163     0.08300
H734        H  0.28423165  0.68354609  0.54077224     0.05800
H735        H  0.29156173  0.69042677  0.47067386     0.05700
C736        C  0.26780550  0.34097841  0.48520165     0.02700
C737        C  0.28776047  0.35314356  0.48481119    -0.13400
C738        C  0.29713773  0.36132610  0.50432786     0.00200
C739        C  0.28646064  0.35680905  0.52443440    -0.12000
C740        C  0.26633623  0.34514353  0.52522511     0.02700
C741        C  0.25708449  0.33719190  0.50551118    -0.11400
H742        H  0.29551114  0.35699579  0.46913154     0.08300
H743        H  0.29394914  0.36228199  0.53970446     0.05800
H744        H  0.24161212  0.32809994  0.50598430     0.05700
O745        O  0.92262674  0.99498389  0.00112059    -0.86900
O746        O  0.04818240  0.00286181  0.00400682    -0.87100
O747        O  0.98832417  0.97502992  0.96488739    -0.88800
O748        O  0.98570644  0.97019448  0.03611759    -0.87500
O749        O  0.98336919  0.99443461  0.06471398    -0.87100
O750        O  0.98759058  0.00322860  0.93972355    -0.88500
O751        O  0.02316443  0.97466312  0.00160872    -0.86900
O752        O  0.95128849  0.97041824  0.99958337    -0.86500
Zr753      Zr  0.98607503  0.99057912  0.00161949     2.84300
O754        O  0.00675688  0.01197646  0.02604429    -1.08500
O755        O  0.96278560  0.01246595  0.97989182    -1.09200
C756        C  0.93042933  0.97535123  0.99994574     1.06200
C757        C  0.04316154  0.98237866  0.00250869     1.06100
C758        C  0.98877778  0.98271688  0.94497402     1.09100
C759        C  0.98436253  0.97481423  0.05682595     1.06900
H760        H  0.01753199  0.00734918  0.97174575     0.32500
O761        O  0.00745159  0.01525212  0.98113700    -1.29500
H762        H  0.95289677  0.99939384  0.03308623     0.32100
O763        O  0.96184723  0.00956401  0.02467481    -1.31100
O764        O  0.04391209  0.07297895  0.00718776    -0.86900
O765        O  0.91833081  0.06564312  0.00332970    -0.88400
O766        O  0.02062170  0.04081291  0.94258241    -0.87000
O767        O  0.01828259  0.03211782  0.06795694    -0.87000
O768        O  0.94606978  0.02885811  0.06574452    -0.86700
O769        O  0.94897616  0.03454221  0.94041896    -0.86600
O770        O  0.98022733  0.09981671  0.97177226    -0.86900
O771        O  0.97840186  0.09445174  0.04367433    -0.86400
O772        O  0.98178960  0.07443330  0.94412297    -0.87500
O773        O  0.97975862  0.06587615  0.06842053    -0.86600
O774        O  0.04673332  0.03981804  0.97018084    -0.87000
O775        O  0.92150076  0.03063814  0.96632756    -0.86700
O776        O  0.91956850  0.02879072  0.03848563    -0.86400
O777        O  0.04530775  0.03525382  0.04150714    -0.86800
O778        O  0.01647677  0.09891216  0.00784376    -0.87100
O779        O  0.94278099  0.09435411  0.00611724    -0.88400
Zr780      Zr  0.02758453  0.03699476  0.00542167     2.83100
Zr781      Zr  0.93873933  0.03156560  0.00295071     2.83500
Zr782      Zr  0.98424874  0.03756303  0.95979578     2.84100
Zr783      Zr  0.98253446  0.03146316  0.04866600     2.83400
Zr784      Zr  0.98062707  0.07910159  0.00659541     2.84200
O785        O  0.95933187  0.05372650  0.02694193    -1.09000
O786        O  0.00482932  0.05957484  0.98375888    -1.08500
C787        C  0.03717801  0.09295348  0.00779110     1.06200
C788        C  0.92290490  0.08622670  0.00455987     1.08800
C789        C  0.04089375  0.04078221  0.94966911     1.06300
C790        C  0.03881135  0.03350635  0.06175921     1.06700
C791        C  0.92571013  0.02813503  0.05897724     1.06300
C792        C  0.92846428  0.03198424  0.94615546     1.05800
C793        C  0.98050309  0.09432167  0.95117668     1.06300
C794        C  0.97841360  0.08644474  0.06350832     1.05800
H795        H  0.95024531  0.06566346  0.97350801     0.32400
O796        O  0.95995760  0.05680045  0.98258753    -1.30100
H797        H  0.01245596  0.06557703  0.03824074     0.32500
O798        O  0.00378621  0.05665163  0.02832434    -1.31500
O799        O  0.47554084  0.58710325  0.54279386    -0.86900
O800        O  0.48281099  0.46279337  0.53666300    -0.87100
O801        O  0.44412066  0.52298324  0.56572338    -0.88800
O802        O  0.51577848  0.52673820  0.56532308    -0.87500
O803        O  0.54303265  0.52879030  0.53900700    -0.87100
O804        O  0.41649180  0.52344975  0.53966014    -0.88500
O805        O  0.48250409  0.48869040  0.56380927    -0.86900
O806        O  0.47731365  0.55883612  0.56778339    -0.86500
Zr807      Zr  0.47983992  0.52492717  0.54735221     2.84300
O808        O  0.50315904  0.50499596  0.52432556    -1.08500
O809        O  0.45602414  0.54737412  0.52702896    -1.09200
C810        C  0.47579468  0.57931893  0.56269423     1.06200
C811        C  0.48322356  0.46867969  0.55716525     1.06100
C812        C  0.42349008  0.52285398  0.55986111     1.09100
C813        C  0.53628487  0.52795468  0.55923417     1.06900
H814        H  0.44923132  0.49286845  0.53361833     0.32500
O815        O  0.45804521  0.50274760  0.52471568    -1.29500
H816        H  0.50992391  0.55851261  0.53628023     0.32100
O817        O  0.50115369  0.54945663  0.52659270    -1.31100
O818        O  0.48270787  0.46741285  0.46435974    -0.86900
O819        O  0.47662154  0.59205701  0.47143234    -0.88400
O820        O  0.41791413  0.48961696  0.50146837    -0.87000
O821        O  0.54422379  0.49438377  0.50310109    -0.87000
O822        O  0.54125407  0.56606449  0.50499421    -0.86700
O823        O  0.41475318  0.55996684  0.50547745    -0.86600
O824        O  0.44298178  0.53071912  0.44118868    -0.86900
O825        O  0.51495476  0.53320156  0.44048650    -0.86400
O826        O  0.41645474  0.52691470  0.46810119    -0.87500
O827        O  0.54202792  0.53179347  0.46713624    -0.86600
O828        O  0.44534719  0.46368086  0.50008215    -0.87000
O829        O  0.44007480  0.58800651  0.50666678    -0.86700
O830        O  0.51269458  0.59087947  0.50618528    -0.86400
O831        O  0.51866435  0.46647128  0.50225261    -0.86800
O832        O  0.48105445  0.49569908  0.43927254    -0.87100
O833        O  0.47879983  0.56742284  0.44317390    -0.88400
Zr834      Zr  0.48141691  0.48288229  0.50135196     2.83100
Zr835      Zr  0.47721471  0.57161247  0.50583903     2.83500
Zr836      Zr  0.43484346  0.52548416  0.50370561     2.84100
Zr837      Zr  0.52444519  0.52947905  0.50325851     2.83400
Zr838      Zr  0.47927480  0.53030593  0.45909784     2.84200
O839        O  0.50082404  0.55203896  0.48242464    -1.09000
O840        O  0.45805505  0.50564226  0.48020269    -1.08500
C841        C  0.48229539  0.47515384  0.44443751     1.06200
C842        C  0.47774725  0.58714566  0.45078955     1.08800
C843        C  0.42466455  0.46963745  0.50043731     1.06300
C844        C  0.53887891  0.47383452  0.50296939     1.06700
C845        C  0.53354706  0.58580712  0.50591755     1.06300
C846        C  0.41994536  0.58046101  0.50640816     1.05800
C847        C  0.42262342  0.52926050  0.44783307     1.06300
C848        C  0.53545827  0.53308805  0.44684395     1.05800
H849        H  0.44607177  0.55925975  0.47366252     0.32400
O850        O  0.45576699  0.54999102  0.48234274    -1.30100
H851        H  0.51240100  0.49942765  0.47046640     0.32500
O852        O  0.50271834  0.50755265  0.48009825    -1.31500
C853        C  0.33698077  0.40761299  0.51759424    -0.11300
C854        C  0.35424175  0.40446095  0.50238015     0.05900
C855        C  0.35313260  0.38638998  0.48818870    -0.10000
C856        C  0.33478210  0.37215124  0.48886289    -0.11700
C857        C  0.31724676  0.37567887  0.50381213    -0.01500
C858        C  0.31872296  0.39355397  0.51820592    -0.10600
C859        C  0.37259203  0.42076583  0.50089759     0.05900
H860        H  0.36614950  0.38360386  0.47621676     0.07800
H861        H  0.33431841  0.35842288  0.47768862     0.11300
H862        H  0.30545550  0.39708697  0.52967834     0.11600
H863        H  0.33747072  0.42119039  0.52896242     0.07800
C864        C  0.36764323  0.44313884  0.50214856    -0.11300
C865        C  0.38452317  0.45876905  0.50174870    -0.10600
C866        C  0.40698028  0.45255668  0.50004128    -0.01500
C867        C  0.41200344  0.43014733  0.49843810    -0.11700
C868        C  0.39494840  0.41439752  0.49877557    -0.10100
H869        H  0.35058534  0.44862393  0.50339953     0.07800
H870        H  0.37984765  0.47580763  0.50296668     0.11500
H871        H  0.42908242  0.42476892  0.49711836     0.11300
H872        H  0.39926138  0.39724603  0.49789233     0.07800
C873        C  0.36142123  0.60366416  0.50605857    -0.11300
C874        C  0.36531495  0.62616925  0.50830742     0.05900
C875        C  0.38735578  0.63367977  0.51003112    -0.10000
C876        C  0.40514376  0.61892291  0.50952360    -0.11700
C877        C  0.40125095  0.59634680  0.50714470    -0.01500
C878        C  0.37912798  0.58895596  0.50542462    -0.10600
C879        C  0.34633995  0.64165496  0.50831251     0.05900
H880        H  0.39080319  0.65095525  0.51194266     0.07800
H881        H  0.42192024  0.62521363  0.51099167     0.11300
H882        H  0.37540804  0.57174673  0.50345156     0.11600
H883        H  0.34462811  0.59745449  0.50437785     0.07800
C884        C  0.34689393  0.66067626  0.49519181    -0.11300
C885        C  0.32852534  0.67464097  0.49425821    -0.10600
C886        C  0.30925752  0.66999038  0.50656685    -0.01500
C887        C  0.30884240  0.65108912  0.51993086    -0.11700
C888        C  0.32716440  0.63706080  0.52075520    -0.10100
H889        H  0.36139047  0.66452377  0.48531080     0.07800
H890        H  0.32949508  0.68923426  0.48406914     0.11500
H891        H  0.29422249  0.64698776  0.52952615     0.11300
H892        H  0.32636332  0.62258743  0.53114199     0.07800
C893        C  0.61366188  0.39464222  0.52126034    -0.11300
C894        C  0.61148777  0.41068926  0.50466609     0.05900
C895        C  0.62735496  0.41142539  0.48768815    -0.10000
C896        C  0.64507936  0.39661027  0.48735290    -0.11700
C897        C  0.64756843  0.38071672  0.50411533    -0.01500
C898        C  0.63151785  0.37989032  0.52104043    -0.10600
C899        C  0.59287417  0.42676699  0.50498113     0.05900
H900        H  0.62599552  0.42349634  0.47458480     0.07800
H901        H  0.65714299  0.39799951  0.47418062     0.11300
H902        H  0.63263292  0.36772443  0.53406512     0.11600
H903        H  0.60170610  0.39372631  0.53458237     0.07800
C904        C  0.57069788  0.41982132  0.50727455    -0.11300
C905        C  0.55317936  0.43498090  0.50651211    -0.10600
C906        C  0.55743083  0.45753435  0.50378262    -0.01500
C907        C  0.57973764  0.46441455  0.50198596    -0.11700
C908        C  0.59717316  0.44923646  0.50241806    -0.10100
H909        H  0.56689418  0.40258972  0.50918441     0.07800
H910        H  0.53629367  0.42900141  0.50807890     0.11500
H911        H  0.58378562  0.48157934  0.50001552     0.11300
H912        H  0.61411365  0.45508076  0.50083459     0.07800
C913        C  0.59301435  0.67659026  0.49646842    -0.11300
C914        C  0.59427725  0.65962536  0.51222791     0.05900
C915        C  0.61008440  0.66131710  0.52929411    -0.10000
C916        C  0.62449210  0.67935062  0.53031548    -0.11700
C917        C  0.62347946  0.69603672  0.51424014    -0.01500
C918        C  0.60729982  0.69458209  0.49754018    -0.10600
C919        C  0.57897601  0.64044725  0.51076677     0.05900
H920        H  0.61131103  0.64871268  0.54187785     0.07800
H921        H  0.63688059  0.67988673  0.54328951     0.11300
H922        H  0.60587355  0.70726881  0.48505111     0.11600
H923        H  0.58125412  0.67577893  0.48294910     0.07800
C924        C  0.55683735  0.64342751  0.50396471    -0.11300
C925        C  0.54238985  0.62565310  0.50209639    -0.10600
C926        C  0.54957911  0.60430665  0.50704239    -0.01500
C927        C  0.57174526  0.60118771  0.51380519    -0.11700
C928        C  0.58627083  0.61908703  0.51573097    -0.10100
H929        H  0.55050184  0.65962029  0.50034784     0.07800
H930        H  0.52546345  0.62870626  0.49680394     0.11500
H931        H  0.57777529  0.58497779  0.51788659     0.11300
H932        H  0.60327636  0.61616639  0.52082183     0.07800
C933        C  0.35212852  0.55345116  0.36748107    -0.11300
C934        C  0.35260136  0.53619498  0.38292944     0.05900
C935        C  0.33559277  0.52045078  0.38259863    -0.10000
C936        C  0.31841566  0.52196103  0.36726658    -0.11700
C937        C  0.31806725  0.53898702  0.35155843    -0.01500
C938        C  0.33504794  0.55480325  0.35188958    -0.10600
C939        C  0.37062062  0.53459266  0.39949803     0.05900
H940        H  0.33563657  0.50680135  0.39408859     0.07800
H941        H  0.30535725  0.50975102  0.36777040     0.11300
H942        H  0.33533666  0.56801750  0.33989746     0.11600
H943        H  0.36486923  0.56598878  0.36753861     0.07800
C944        C  0.39267309  0.53968297  0.39380637    -0.11300
C945        C  0.40963566  0.53782167  0.40944768    -0.10600
C946        C  0.40486099  0.53079671  0.43106579    -0.01500
C947        C  0.38277041  0.52582786  0.43675193    -0.11700
C948        C  0.36585168  0.52773235  0.42115372    -0.10100
H949        H  0.39687452  0.54481367  0.37718367     0.07800
H950        H  0.42645519  0.54198575  0.40461593     0.11500
H951        H  0.37848669  0.52047710  0.45329133     0.11300
H952        H  0.34896497  0.52407104  0.42615182     0.07800
C953        C  0.46394499  0.67816499  0.39280125    -0.11300
C954        C  0.47833997  0.66044901  0.38910553     0.05900
C955        C  0.49252513  0.66132177  0.37066117    -0.10000
C956        C  0.49275877  0.67970997  0.35674852    -0.11700
C957        C  0.47891328  0.69769211  0.36100037    -0.01500
C958        C  0.46433766  0.69657477  0.37904679    -0.10600
C959        C  0.47874797  0.64151459  0.40479038     0.05900
H960        H  0.50388141  0.64807509  0.36724846     0.07800
H961        H  0.50386545  0.67990676  0.34269901     0.11300
H962        H  0.45348773  0.71014299  0.38282116     0.11600
H963        H  0.45231349  0.67789332  0.40640813     0.07800
C964        C  0.47490264  0.64480151  0.42741778    -0.11300
C965        C  0.47439081  0.62718560  0.44217403    -0.10600
C966        C  0.47803240  0.60572043  0.43482858    -0.01500
C967        C  0.48241557  0.60240458  0.41231335    -0.11700
C968        C  0.48275352  0.62008196  0.39746281    -0.10100
H969        H  0.47244501  0.66107282  0.43387401     0.07800
H970        H  0.47115833  0.63047546  0.45941198     0.11500
H971        H  0.48555019  0.58613599  0.40612641     0.11300
H972        H  0.48570827  0.61684485  0.38018083     0.07800
C973        C  0.60145199  0.52444760  0.35998475    -0.11300
C974        C  0.60413474  0.53582958  0.37991778     0.05900
C975        C  0.62434657  0.54672211  0.38387898    -0.10000
C976        C  0.64162812  0.54580849  0.36859205    -0.11700
C977        C  0.63910954  0.53411198  0.34887390    -0.01500
C978        C  0.61877622  0.52358080  0.34463236    -0.10600
C979        C  0.58635288  0.53566479  0.39692983     0.05900
H980        H  0.62687053  0.55595586  0.39885825     0.07800
H981        H  0.65715917  0.55395896  0.37239619     0.11300
H982        H  0.61629964  0.51465111  0.32945203     0.11600
H983        H  0.58618606  0.51571631  0.35648247     0.07800
C984        C  0.56376452  0.53636764  0.39093398    -0.11300
C985        C  0.54719033  0.53563614  0.40708679    -0.10600
C986        C  0.55285641  0.53428879  0.42960037    -0.01500
C987        C  0.57543913  0.53374699  0.43554616    -0.11700
C988        C  0.59194365  0.53435694  0.41943692    -0.10100
H989        H  0.55888007  0.53764259  0.37376551     0.07800
H990        H  0.52995615  0.53609828  0.40190263     0.11500
H991        H  0.58045704  0.53260545  0.45269084     0.11300
H992        H  0.60913176  0.53333592  0.42466079     0.07800
C993        C  0.46419811  0.39942558  0.36925594    -0.11300
C994        C  0.48197405  0.41412647  0.37184893     0.05900
C995        C  0.49854380  0.41516226  0.35562070    -0.10000
C996        C  0.49741256  0.40179667  0.33708486    -0.11700
C997        C  0.47960412  0.38715587  0.33427677    -0.01500
C998        C  0.46291414  0.38617115  0.35051865    -0.10600
C999        C  0.48268171  0.42939608  0.39066190     0.05900
H1000       H  0.51235920  0.42643107  0.35727174     0.07800
H1001       H  0.51033027  0.40318093  0.32472421     0.11300
H1002       H  0.44902838  0.37499750  0.34884881     0.11600
H1003       H  0.45109527  0.39856459  0.38147685     0.07800
C1004       C  0.48483078  0.45191415  0.38663757    -0.11300
C1005       C  0.48496602  0.46668775  0.40408164    -0.10600
C1006       C  0.48313453  0.45926081  0.42603303    -0.01500
C1007       C  0.48157726  0.43657923  0.43007886    -0.11700
C1008       C  0.48115754  0.42179327  0.41252585    -0.10100
H1009       H  0.48597217  0.45812017  0.36988256     0.07800
H1010       H  0.48633707  0.48397214  0.40029904     0.11500
H1011       H  0.48030072  0.43025285  0.44677275     0.11300
H1012       H  0.47973280  0.40444265  0.41599234     0.07800
C1013       C  0.59776169  0.54178487  0.64857081    -0.11300
C1014       C  0.60143361  0.52926396  0.62954290     0.05900
C1015       C  0.62100603  0.51690264  0.62804880    -0.10000
C1016       C  0.63660417  0.51714618  0.64511722    -0.11700
C1017       C  0.63291071  0.52958615  0.66419756    -0.01500
C1018       C  0.61330090  0.54190035  0.66573097    -0.10600
C1019       C  0.58486288  0.52901789  0.61138677     0.05900
H1020       H  0.62419507  0.50685169  0.61376597     0.07800
H1021       H  0.65168786  0.50771215  0.64326672     0.11300
H1022       H  0.60985047  0.55146268  0.68029230     0.11600
H1023       H  0.58296215  0.55169365  0.65012617     0.07800
C1024       C  0.56204371  0.52909164  0.61617078    -0.11300
C1025       C  0.54639092  0.52890006  0.59921212    -0.10600
C1026       C  0.55314443  0.52847366  0.57700581    -0.01500
C1027       C  0.57597868  0.52841753  0.57215748    -0.11700
C1028       C  0.59167683  0.52868632  0.58918645    -0.10100
H1029       H  0.55623068  0.52898301  0.63307400     0.07800
H1030       H  0.52894503  0.52897650  0.60359800     0.11500
H1031       H  0.58174670  0.52814808  0.55523802     0.11300
H1032       H  0.60915496  0.52891487  0.58495363     0.07800
C1033       C  0.46871043  0.40661328  0.64450731    -0.11300
C1034       C  0.48475172  0.40377657  0.62793431     0.05900
C1035       C  0.49967575  0.38616089  0.62992745    -0.10000
C1036       C  0.49889436  0.37220437  0.64851003    -0.11700
C1037       C  0.48300171  0.37546625  0.66526041    -0.01500
C1038       C  0.46788414  0.39275244  0.66286052    -0.10600
C1039       C  0.48599708  0.41997209  0.60940639     0.05900
H1040       H  0.51226329  0.38355117  0.61746888     0.07800
H1041       H  0.51070498  0.35891402  0.64981811     0.11300
H1042       H  0.45565466  0.39595515  0.67551388     0.11600
H1043       H  0.45674095  0.41977121  0.64336235     0.07800
C1044       C  0.48867589  0.41361629  0.58726555    -0.11300
C1045       C  0.48779434  0.42926478  0.57008975    -0.10600
C1046       C  0.48445659  0.45156079  0.57479569    -0.01500
C1047       C  0.48234738  0.45775102  0.59701185    -0.11700
C1048       C  0.48320989  0.44227273  0.61396476    -0.10100
H1049       H  0.49080458  0.39653503  0.58320977     0.07800
H1050       H  0.48959605  0.42390881  0.55319223     0.11500
H1051       H  0.47982341  0.47468087  0.60146297     0.11300
H1052       H  0.48153028  0.44782610  0.63081144     0.07800
C1053       C  0.34188106  0.53744933  0.63053123    -0.11300
C1054       C  0.35971342  0.52269247  0.63132170     0.05900
C1055       C  0.36253245  0.50945923  0.65019854    -0.10000
C1056       C  0.34796338  0.51118915  0.66803261    -0.11700
C1057       C  0.33037980  0.52627114  0.66736635    -0.01500
C1058       C  0.32738109  0.53923116  0.64836866    -0.10600
C1059       C  0.37581133  0.52181766  0.61286535     0.05900
H1060       H  0.37603632  0.49780613  0.65117411     0.07800
H1061       H  0.35072068  0.50105782  0.68251705     0.11300
H1062       H  0.31377275  0.55075515  0.64729065     0.11600
H1063       H  0.33944172  0.54800027  0.61630408     0.07800
C1064       C  0.36855385  0.52267544  0.59079618    -0.11300
C1065       C  0.38392202  0.52279167  0.57347550    -0.10600
C1066       C  0.40686718  0.52211822  0.57791438    -0.01500
C1067       C  0.41401216  0.52113777  0.60004623    -0.11700
C1068       C  0.39868744  0.52094893  0.61727577    -0.10100
H1069       H  0.35097507  0.52320230  0.58694047     0.07800
H1070       H  0.37782694  0.52356597  0.55665926     0.11500
H1071       H  0.43153095  0.52071019  0.60417064     0.11300
H1072       H  0.40478387  0.52064690  0.63410796     0.07800
C1073       C  0.48426619  0.66047669  0.63337207    -0.11300
C1074       C  0.47259389  0.64059823  0.63499160     0.05900
C1075       C  0.46161040  0.63538334  0.65479866    -0.10000
C1076       C  0.46272281  0.64949070  0.67279839    -0.11700
C1077       C  0.47498226  0.66903726  0.67142820    -0.01500
C1078       C  0.48551338  0.67452145  0.65143861    -0.10600
C1079       C  0.47266134  0.62492362  0.61643708     0.05900
H1080       H  0.45227464  0.62029124  0.65641133     0.07800
H1081       H  0.45450707  0.64481304  0.68801471     0.11300
H1082       H  0.49483433  0.68962367  0.64983823     0.11600
H1083       H  0.49298472  0.66485872  0.61834675     0.07800
C1084       C  0.46985819  0.63219365  0.59455997    -0.11300
C1085       C  0.47065193  0.61739403  0.57709928    -0.10600
C1086       C  0.47437196  0.59501751  0.58115645    -0.01500
C1087       C  0.47693578  0.58776670  0.60310478    -0.11700
C1088       C  0.47609983  0.60254897  0.62051907    -0.10100
H1089       H  0.46694216  0.64932475  0.59097235     0.07800
H1090       H  0.46841053  0.62352010  0.56042822     0.11500
H1091       H  0.47988147  0.57067700  0.60687832     0.11300
H1092       H  0.47862507  0.59652455  0.63718997     0.07800
C1093       C  0.68778425  0.78982851  0.62829572    -0.11300
C1094       C  0.69590641  0.77179648  0.61651896     0.05900
C1095       C  0.71095348  0.75750138  0.62685599    -0.10000
C1096       C  0.71712918  0.76062691  0.64878326    -0.11700
C1097       C  0.70876450  0.77837830  0.66068410    -0.01500
C1098       C  0.69443927  0.79327461  0.65019402    -0.10600
C1099       C  0.68779261  0.76669925  0.59405100     0.05900
H1100       H  0.71720379  0.74333680  0.61823452     0.07800
H1101       H  0.72810181  0.74888109  0.65664718     0.11300
H1102       H  0.68759500  0.80689893  0.65924391     0.11600
H1103       H  0.67609633  0.80101172  0.62065000     0.07800
C1104       C  0.66490290  0.76502279  0.58981701    -0.11300
C1105       C  0.65728865  0.75687459  0.56963401    -0.10600
C1106       C  0.67242276  0.75050568  0.55321614    -0.01500
C1107       C  0.69530202  0.75319461  0.55713503    -0.11700
C1108       C  0.70290166  0.76110217  0.57738851    -0.10100
H1109       H  0.65294205  0.76906244  0.60248599     0.07800
H1110       H  0.63955678  0.75524384  0.56696837     0.11500
H1111       H  0.70736182  0.74834426  0.54487052     0.11300
H1112       H  0.72063670  0.76230091  0.58029544     0.07800
C1113       C  0.69579855  0.59186928  0.74902639    -0.11300
C1114       C  0.69646784  0.61051474  0.73532005     0.05900
C1115       C  0.68814759  0.60894470  0.71369944    -0.10000
C1116       C  0.67999292  0.58920866  0.70571454    -0.11700
C1117       C  0.67946133  0.57041925  0.71920474    -0.01500
C1118       C  0.68734325  0.57201976  0.74106225    -0.10600
C1119       C  0.70550031  0.63176337  0.74314580     0.05900
H1120       H  0.68789146  0.62306331  0.70280976     0.07800
H1121       H  0.67459265  0.58866031  0.68868009     0.11300
H1122       H  0.68700273  0.55795876  0.75201624     0.11600
H1123       H  0.70210480  0.59253373  0.76575797     0.07800
C1124       C  0.70103150  0.63952174  0.76453252    -0.11300
C1125       C  0.70678633  0.66098432  0.77037962    -0.10600
C1126       C  0.71682781  0.67490856  0.75481103    -0.01500
C1127       C  0.72262441  0.66667354  0.73407350    -0.11700
C1128       C  0.71726929  0.64531001  0.72839531    -0.10100
H1129       H  0.69202879  0.62947076  0.77628936     0.07800
H1130       H  0.70220381  0.66707862  0.78647773     0.11500
H1131       H  0.73076259  0.67705507  0.72195032     0.11300
H1132       H  0.72169400  0.63964059  0.71209531     0.07800
C1133       C  0.59402832  0.75242399  0.75173279    -0.11300
C1134       C  0.58877231  0.73984941  0.73309984     0.05900
C1135       C  0.60599169  0.73395527  0.71865458    -0.10000
C1136       C  0.62796071  0.74011656  0.72292532    -0.11700
C1137       C  0.63330601  0.75239144  0.74174106    -0.01500
C1138       C  0.61602294  0.75868223  0.75597023    -0.10600
C1139       C  0.56557939  0.73239553  0.72888932     0.05900
H1140       H  0.60258095  0.72406807  0.70428303     0.07800
H1141       H  0.64079506  0.73505251  0.71155218     0.11300
H1142       H  0.61951043  0.76818226  0.77059211     0.11600
H1143       H  0.58111843  0.75747600  0.76302196     0.07800
C1144       C  0.55196116  0.72496372  0.74627887    -0.11300
C1145       C  0.53070549  0.71656444  0.74200454    -0.10600
C1146       C  0.52262218  0.71543323  0.72024950    -0.01500
C1147       C  0.53598525  0.72351740  0.70299484    -0.11700
C1148       C  0.55717156  0.73186163  0.70724980    -0.10100
H1149       H  0.55801128  0.72496419  0.76312156     0.07800
H1150       H  0.52088748  0.71034353  0.75564576     0.11500
H1151       H  0.53003805  0.72340631  0.68611360     0.11300
H1152       H  0.56700469  0.73790742  0.69354147     0.07800
C1153       C  0.71008465  0.32881291  0.62789757    -0.11300
C1154       C  0.72374173  0.31988552  0.61156048     0.05900
C1155       C  0.74023173  0.30475681  0.61774509    -0.10000
C1156       C  0.74307085  0.29884443  0.64001251    -0.11700
C1157       C  0.72917541  0.30770606  0.65630511    -0.01500
C1158       C  0.71271667  0.32278824  0.64992366    -0.10600
C1159       C  0.72015243  0.32640776  0.58822537     0.05900
H1160       H  0.75097509  0.29767758  0.60539649     0.07800
H1161       H  0.75582618  0.28712155  0.64441745     0.11300
H1162       H  0.70172576  0.32999951  0.66198487     0.11600
H1163       H  0.69703969  0.34025928  0.62356235     0.07800
C1164       C  0.71775678  0.31064063  0.57163066    -0.11300
C1165       C  0.71098276  0.31687064  0.55034209    -0.10600
C1166       C  0.70647106  0.33893945  0.54540407    -0.01500
C1167       C  0.71022225  0.35475266  0.56167228    -0.11700
C1168       C  0.71696531  0.34855705  0.58283922    -0.10100
H1169       H  0.71998340  0.29344725  0.57542568     0.07800
H1170       H  0.70815547  0.30435108  0.53809551     0.11500
H1171       H  0.70731044  0.37190402  0.55816653     0.11300
H1172       H  0.71905717  0.36105438  0.59525515     0.07800
C1173       C  0.59341530  0.31261774  0.76991372    -0.11300
C1174       C  0.58778092  0.32812620  0.75360327     0.05900
C1175       C  0.60480392  0.33823839  0.74139979    -0.10000
C1176       C  0.62686734  0.33233470  0.74472615    -0.11700
C1177       C  0.63248076  0.31603802  0.76025315    -0.01500
C1178       C  0.61563900  0.30670429  0.77330638    -0.10600
C1179       C  0.56431604  0.33276176  0.74786970     0.05900
H1180       H  0.60100714  0.34999774  0.72848328     0.07800
H1181       H  0.63946353  0.33996213  0.73445780     0.11300
H1182       H  0.61949877  0.29409465  0.78534746     0.11600
H1183       H  0.58059872  0.30471706  0.77966201     0.07800
C1184       C  0.54885963  0.31561780  0.74562776    -0.11300
C1185       C  0.52785789  0.31962252  0.73651156    -0.10600
C1186       C  0.52215555  0.34076529  0.72934398    -0.01500
C1187       C  0.53706478  0.35806311  0.73285547    -0.11700
C1188       C  0.55788585  0.35412792  0.74213727    -0.10100
H1189       H  0.55342716  0.29896032  0.74975117     0.07800
H1190       H  0.51653778  0.30606216  0.73399902     0.11500
H1191       H  0.53277607  0.37457961  0.72788974     0.11300
H1192       H  0.56928161  0.36771256  0.74413140     0.07800
C1193       C  0.69727929  0.40668308  0.71206845    -0.11300
C1194       C  0.70695152  0.42311595  0.72503044     0.05900
C1195       C  0.72030981  0.41711936  0.74308002    -0.10000
C1196       C  0.72391376  0.39506353  0.74810812    -0.11700
C1197       C  0.71403044  0.37854859  0.73530078    -0.01500
C1198       C  0.70070690  0.38464459  0.71718372    -0.10600
C1199       C  0.70219688  0.44639343  0.72021182     0.05900
H1200       H  0.72799793  0.42951480  0.75326222     0.07800
H1201       H  0.73429511  0.39097716  0.76215779     0.11300
H1202       H  0.69282841  0.37239675  0.70696560     0.11600
H1203       H  0.68663168  0.41090031  0.69824713     0.07800
C1204       C  0.70286671  0.45432380  0.69841673    -0.11300
C1205       C  0.69576650  0.47552251  0.69352632    -0.10600
C1206       C  0.68782552  0.48913095  0.71033720    -0.01500
C1207       C  0.68834083  0.48167158  0.73227855    -0.11700
C1208       C  0.69546772  0.46044185  0.73718360    -0.10100
H1209       H  0.70835359  0.44391689  0.68511038     0.07800
H1210       H  0.69579025  0.48108621  0.67650521     0.11500
H1211       H  0.68212179  0.49184002  0.74545231     0.11300
H1212       H  0.69466894  0.45463942  0.75409654     0.07800
C1213       C  0.24012858  0.70140789  0.58401106    -0.11300
C1214       C  0.23622639  0.72337770  0.58927330     0.05900
C1215       C  0.23789428  0.73929315  0.57248616    -0.10000
C1216       C  0.24492716  0.73350120  0.55124190    -0.11700
C1217       C  0.25023944  0.71165390  0.54637382    -0.01500
C1218       C  0.24689573  0.69559910  0.56281563    -0.10600
C1219       C  0.23310142  0.72977666  0.61267344     0.05900
H1220       H  0.23508225  0.75637211  0.57614518     0.07800
H1221       H  0.24739213  0.74629087  0.53903210     0.11300
H1222       H  0.25021162  0.67854028  0.55949732     0.11600
H1223       H  0.23863338  0.68877611  0.59655667     0.07800
C1224       C  0.21639362  0.74446880  0.61903839    -0.11300
C1225       C  0.21474304  0.75123520  0.64108271    -0.10600
C1226       C  0.23007292  0.74377014  0.65702988    -0.01500
C1227       C  0.24642529  0.72870265  0.65060326    -0.11700
C1228       C  0.24785464  0.72176354  0.62877066    -0.10100
H1229       H  0.20474904  0.75080037  0.60694103     0.07800
H1230       H  0.20191780  0.76280207  0.64548302     0.11500
H1231       H  0.25844705  0.72248597  0.66239574     0.11300
H1232       H  0.26103729  0.71060905  0.62429902     0.07800
C1233       C  0.40285727  0.69762451  0.74691526    -0.11300
C1234       C  0.39902989  0.71946770  0.75285724     0.05900
C1235       C  0.41690542  0.73429421  0.75234884    -0.10000
C1236       C  0.43758813  0.72790536  0.74403995    -0.11700
C1237       C  0.44079026  0.70653813  0.73619004    -0.01500
C1238       C  0.42349351  0.69122224  0.73873828    -0.10600
C1239       C  0.37594227  0.72729970  0.75633984     0.05900
H1240       H  0.41446375  0.75123698  0.75678958     0.07800
H1241       H  0.45051522  0.74014144  0.74233545     0.11300
H1242       H  0.42560671  0.67445081  0.73353814     0.11600
H1243       H  0.38953814  0.68568916  0.74763973     0.07800
C1244       C  0.35912165  0.72022863  0.74197379    -0.11300
C1245       C  0.33775180  0.72874028  0.74332761    -0.10600
C1246       C  0.33246516  0.74469773  0.75905771    -0.01500
C1247       C  0.34907238  0.75138066  0.77398327    -0.11700
C1248       C  0.37069644  0.74285175  0.77252731    -0.10100
H1249       H  0.36266289  0.70862551  0.72903429     0.07800
H1250       H  0.32543727  0.72302614  0.73163367     0.11500
H1251       H  0.34552948  0.76357547  0.78635005     0.11300
H1252       H  0.38335093  0.74855544  0.78385815     0.07800
C1253       C  0.28149539  0.65546543  0.72440406    -0.11300
C1254       C  0.26946905  0.63868230  0.73483763     0.05900
C1255       C  0.25154500  0.64392168  0.74857643    -0.10000
C1256       C  0.24569570  0.66572183  0.75179754    -0.11700
C1257       C  0.25760466  0.68255296  0.74117074    -0.01500
C1258       C  0.27561909  0.67718574  0.72750543    -0.10600
C1259       C  0.27535751  0.61577863  0.73067360     0.05900
H1260       H  0.24215160  0.63116108  0.75686162     0.07800
H1261       H  0.23177384  0.66936367  0.76245337     0.11300
H1262       H  0.28520299  0.68974998  0.71912717     0.11600
H1263       H  0.29520179  0.65175265  0.71348731     0.07800
C1264       C  0.25881321  0.60051893  0.72516577    -0.11300
C1265       C  0.26470150  0.57935432  0.71914651    -0.10600
C1266       C  0.28716839  0.57337493  0.71844208    -0.01500
C1267       C  0.30362728  0.58836077  0.72460635    -0.11700
C1268       C  0.29775804  0.60941885  0.73078042    -0.10100
H1269       H  0.24145724  0.60519054  0.72477578     0.07800
H1270       H  0.25184694  0.56786391  0.71439965     0.11500
H1271       H  0.32101211  0.58376866  0.72447482     0.11300
H1272       H  0.31072517  0.62086299  0.73532254     0.07800
C1273       C  0.23995333  0.31662536  0.57458357    -0.11300
C1274       C  0.24017426  0.33340729  0.59035806     0.05900
C1275       C  0.24697486  0.35446955  0.58377816    -0.10000
C1276       C  0.25452166  0.35840426  0.56235397    -0.11700
C1277       C  0.25542621  0.34140067  0.54690900    -0.01500
C1278       C  0.24746205  0.32060724  0.55302608    -0.10600
C1279       C  0.23504008  0.32876656  0.61395281     0.05900
H1280       H  0.24687432  0.36787363  0.59535888     0.07800
H1281       H  0.26012883  0.37471248  0.55796972     0.11300
H1282       H  0.24807493  0.30718624  0.54148486     0.11600
H1283       H  0.23498348  0.30018456  0.57917423     0.07800
C1284       C  0.21773100  0.31447956  0.62016842    -0.11300
C1285       C  0.21396704  0.30947709  0.64250163    -0.10600
C1286       C  0.22757081  0.31854744  0.65900242    -0.01500
C1287       C  0.24450000  0.33320677  0.65270172    -0.11700
C1288       C  0.24820222  0.33819206  0.63054044    -0.10100
H1289       H  0.20719644  0.30709385  0.60776372     0.07800
H1290       H  0.20084293  0.29806723  0.64678061     0.11500
H1291       H  0.25533389  0.34053563  0.66489394     0.11300
H1292       H  0.26191138  0.34895550  0.62637336     0.07800
C1293       C  0.24317761  0.42399574  0.75792482    -0.11300
C1294       C  0.26121784  0.42948217  0.74430049     0.05900
C1295       C  0.27154968  0.41320306  0.73183946    -0.10000
C1296       C  0.26435813  0.39171871  0.73323073    -0.11700
C1297       C  0.24654700  0.38595615  0.74707149    -0.01500
C1298       C  0.23593661  0.40229280  0.75940256    -0.10600
C1299       C  0.26906172  0.45214427  0.74195123     0.05900
H1300       H  0.28512100  0.41713501  0.72075345     0.07800
H1301       H  0.27296753  0.37960855  0.72350506     0.11300
H1302       H  0.22222319  0.39829790  0.77027560     0.11600
H1303       H  0.23493442  0.43640011  0.76758122     0.07800
C1304       C  0.25394769  0.46912237  0.73775237    -0.11300
C1305       C  0.26168936  0.48942829  0.73041907    -0.10600
C1306       C  0.28454818  0.49276571  0.72715281    -0.01500
C1307       C  0.29967259  0.47643449  0.73326508    -0.11700
C1308       C  0.29198648  0.45629764  0.74073929    -0.10100
H1309       H  0.23619646  0.46622804  0.73856929     0.07800
H1310       H  0.24980184  0.50195930  0.72586220     0.11500
H1311       H  0.31739969  0.47895769  0.73132300     0.11300
H1312       H  0.30392844  0.44353448  0.74439742     0.07800
C1313       C  0.35599710  0.33719276  0.73890519    -0.11300
C1314       C  0.37284593  0.32490053  0.74905535     0.05900
C1315       C  0.36713786  0.30971750  0.76566264    -0.10000
C1316       C  0.34470720  0.30585662  0.77087111    -0.11700
C1317       C  0.32780226  0.31720605  0.75955272    -0.01500
C1318       C  0.33379275  0.33346182  0.74412290    -0.10600
C1319       C  0.39596296  0.32725407  0.74097161     0.05900
H1320       H  0.37990949  0.30010668  0.77375974     0.07800
H1321       H  0.34057975  0.29323937  0.78282561     0.11300
H1322       H  0.32122278  0.34279129  0.73537688     0.11600
H1323       H  0.36001343  0.34931775  0.72639444     0.07800
C1324       C  0.40005834  0.32659828  0.71819263    -0.11300
C1325       C  0.42123591  0.33083086  0.70987993    -0.10600
C1326       C  0.43888677  0.33623197  0.72408502    -0.01500
C1327       C  0.43498305  0.33595513  0.74705948    -0.11700
C1328       C  0.41372190  0.33133674  0.75542591    -0.10100
H1329       H  0.38670888  0.32302280  0.70673507     0.07800
H1330       H  0.42368057  0.33006970  0.69220883     0.11500
H1331       H  0.44808807  0.34011651  0.75855816     0.11300
H1332       H  0.41093564  0.33189279  0.77307068     0.07800
C1333       C  0.06813181  0.14761251  0.01025937    -0.11300
C1334       C  0.09040901  0.14064285  0.00906227     0.05900
C1335       C  0.09473736  0.11820793  0.00728434    -0.10000
C1336       C  0.07744221  0.10307009  0.00697838    -0.11700
C1337       C  0.05509936  0.10980250  0.00832538    -0.01500
C1338       C  0.05061135  0.13231238  0.00995993    -0.10600
C1339       C  0.10940855  0.15629075  0.00990943     0.05900
H1340       H  0.11163209  0.11228847  0.00590932     0.07800
H1341       H  0.08175913  0.08595637  0.00555904     0.11300
H1342       H  0.03364694  0.13807726  0.01106865     0.11600
H1343       H  0.06430196  0.16482581  0.01178074     0.07800
C1344       C  0.10934795  0.17587750  0.99759388    -0.11300
C1345       C  0.12814052  0.18956936  0.99738226    -0.10600
C1346       C  0.14727560  0.18403206  0.00965210    -0.01500
C1347       C  0.14706908  0.16462765  0.02220206    -0.11700
C1348       C  0.12842759  0.15099626  0.02235297    -0.10100
H1349       H  0.09501431  0.18030881  0.98770070     0.07800
H1350       H  0.12770083  0.20448900  0.98765313     0.11500
H1351       H  0.16156873  0.15968825  0.03159276     0.11300
H1352       H  0.12895661  0.13614339  0.03218613     0.07800
C1353       C  0.24121243  0.25670533  0.89407161    -0.11300
C1354       C  0.22266890  0.24430256  0.90075846     0.05900
C1355       C  0.20844987  0.23570245  0.88462893    -0.10000
C1356       C  0.21193122  0.24022756  0.86235148    -0.11700
C1357       C  0.22973979  0.25357861  0.85551640    -0.01500
C1358       C  0.24469253  0.26138083  0.87158231    -0.10600
C1359       C  0.21709743  0.24081310  0.92435147     0.05900
H1360       H  0.19433232  0.22567876  0.88933794     0.07800
H1361       H  0.20032056  0.23352982  0.85049197     0.11300
H1362       H  0.25864301  0.27160294  0.86685186     0.11600
H1363       H  0.25247443  0.26341160  0.90625031     0.07800
C1364       C  0.23250872  0.23179566  0.93927681    -0.11300
C1365       C  0.22573324  0.22555829  0.96058003    -0.10600
C1366       C  0.20347901  0.22830054  0.96720578    -0.01500
C1367       C  0.18857166  0.23862826  0.95269079    -0.11700
C1368       C  0.19529979  0.24479418  0.93152692    -0.10100
H1369       H  0.24940461  0.22856841  0.93410296     0.07800
H1370       H  0.23758521  0.21764512  0.97147095     0.11500
H1371       H  0.17150014  0.24143794  0.95754488     0.11300
H1372       H  0.18323573  0.25211829  0.92044053     0.07800
C1373       C  0.70707882  0.74831687  0.44569913    -0.11300
C1374       C  0.69262020  0.74995563  0.42745325     0.05900
C1375       C  0.66958870  0.74897048  0.43116975    -0.10000
C1376       C  0.66120159  0.74541826  0.45234579    -0.11700
C1377       C  0.67558555  0.74273115  0.47045015    -0.01500
C1378       C  0.69862947  0.74471002  0.46702211    -0.10600
C1379       C  0.70118709  0.75203664  0.40446173     0.05900
H1380       H  0.65797989  0.75078029  0.41759910     0.07800
H1381       H  0.64335587  0.74446586  0.45453724     0.11300
H1382       H  0.71011414  0.74261519  0.48065847     0.11600
H1383       H  0.72491087  0.74900672  0.44337443     0.07800
C1384       C  0.71900271  0.76605869  0.39927446    -0.11300
C1385       C  0.72581994  0.76892160  0.37730238    -0.10600
C1386       C  0.71500404  0.75777676  0.36001855    -0.01500
C1387       C  0.69780335  0.74309975  0.36541426    -0.11700
C1388       C  0.69099884  0.74029045  0.38730347    -0.10100
H1389       H  0.72719151  0.77534433  0.41210156     0.07800
H1390       H  0.73923217  0.78027203  0.37382853     0.11500
H1391       H  0.68924596  0.73403362  0.35266457     0.11300
H1392       H  0.67757570  0.72895900  0.39080078     0.07800
C1393       C  0.60714471  0.75779487  0.30889653    -0.11300
C1394       C  0.59029340  0.77031520  0.29900435     0.05900
C1395       C  0.59637479  0.78743654  0.28452606    -0.10000
C1396       C  0.61890749  0.79128368  0.27941563    -0.11700
C1397       C  0.63566605  0.77811760  0.28879890    -0.01500
C1398       C  0.62940728  0.76159716  0.30388412    -0.10600
C1399       C  0.56664543  0.76454303  0.30352028     0.05900
H1400       H  0.58369828  0.79732933  0.27663726     0.07800
H1401       H  0.62314551  0.80405160  0.26766933     0.11300
H1402       H  0.64176761  0.75126350  0.31171471     0.11600
H1403       H  0.60306402  0.74480759  0.32046818     0.07800
C1404       C  0.56017299  0.74245388  0.30352196    -0.11300
C1405       C  0.53884278  0.73623343  0.31002860    -0.10600
C1406       C  0.52327301  0.75189162  0.31680293    -0.01500
C1407       C  0.52931067  0.77416008  0.31585348    -0.11700
C1408       C  0.55082630  0.78043781  0.30921946    -0.10100
H1409       H  0.57181161  0.72985969  0.29875341     0.07800
H1410       H  0.53458926  0.71901418  0.30995994     0.11500
H1411       H  0.51770258  0.78662447  0.32099484     0.11300
H1412       H  0.55537113  0.79758109  0.30940385     0.07800
C1413       C  0.71875966  0.65161565  0.31149550    -0.11300
C1414       C  0.72842873  0.63510742  0.29871956     0.05900
C1415       C  0.74324529  0.64111263  0.28175772    -0.10000
C1416       C  0.74776126  0.66324460  0.27732134    -0.11700
C1417       C  0.73727541  0.67969349  0.28958501    -0.01500
C1418       C  0.72310861  0.67357343  0.30699183    -0.10600
C1419       C  0.72172575  0.61197063  0.30250617     0.05900
H1420       H  0.75102878  0.62872117  0.27172440     0.07800
H1421       H  0.75862508  0.66748720  0.26370295     0.11300
H1422       H  0.71477331  0.68583342  0.31676998     0.11600
H1423       H  0.70701135  0.64761058  0.32444089     0.07800
C1424       C  0.71840596  0.60413993  0.32412175    -0.11300
C1425       C  0.70863610  0.58373818  0.32784773    -0.10600
C1426       C  0.70217192  0.57056396  0.31006091    -0.01500
C1427       C  0.70668596  0.57771354  0.28844603    -0.11700
C1428       C  0.71634921  0.59828824  0.28468622    -0.10100
H1429       H  0.72275171  0.61411404  0.33819019     0.07800
H1430       H  0.70558031  0.57844942  0.34468035     0.11500
H1431       H  0.70168948  0.56789307  0.27447668     0.11300
H1432       H  0.71850153  0.60395300  0.26784789     0.07800
C1433       C  0.74241875  0.30723227  0.39109922    -0.11300
C1434       C  0.72483782  0.32121138  0.39679487     0.05900
C1435       C  0.71273711  0.33164620  0.37998194    -0.10000
C1436       C  0.71697547  0.32710735  0.35797482    -0.11700
C1437       C  0.73344363  0.31195721  0.35212783    -0.01500
C1438       C  0.74667704  0.30257220  0.36884150    -0.10600
C1439       C  0.71783595  0.32423626  0.41997662     0.05900
H1440       H  0.69949643  0.34294214  0.38391335     0.07800
H1441       H  0.70674431  0.33498317  0.34552655     0.11300
H1442       H  0.75950828  0.29087975  0.36480175     0.11600
H1443       H  0.75207346  0.29911973  0.40383297     0.07800
C1444       C  0.69512142  0.32316751  0.42518808    -0.11300
C1445       C  0.68768409  0.32850489  0.44620452    -0.10600
C1446       C  0.70275530  0.33512644  0.46256640    -0.01500
C1447       C  0.72567572  0.33491424  0.45780671    -0.11700
C1448       C  0.73317217  0.32946390  0.43663247    -0.10100
H1449       H  0.68300299  0.31861911  0.41278126     0.07800
H1450       H  0.67001248  0.32786031  0.44954372     0.11500
H1451       H  0.73769167  0.33990462  0.47011907     0.11300
H1452       H  0.75077793  0.33031509  0.43299942     0.07800
C1453       C  0.67542732  0.45501717  0.28393514    -0.11300
C1454       C  0.69742363  0.44737766  0.28349028     0.05900
C1455       C  0.71464937  0.46173201  0.28964151    -0.10000
C1456       C  0.70978680  0.48284075  0.29722887    -0.11700
C1457       C  0.68760958  0.49001963  0.29869918    -0.01500
C1458       C  0.67059466  0.47602153  0.29140517    -0.10600
C1459       C  0.70195869  0.42403403  0.27823303     0.05900
H1460       H  0.73177044  0.45629505  0.28954567     0.07800
H1461       H  0.72328871  0.49317969  0.30279223     0.11300
H1462       H  0.65340364  0.48122143  0.29176187     0.11600
H1463       H  0.66184341  0.44454591  0.27883271     0.07800
C1464       C  0.68849311  0.40748213  0.28739290    -0.11300
C1465       C  0.69282044  0.38542776  0.28331387    -0.10600
C1466       C  0.71067806  0.37925387  0.26980759    -0.01500
C1467       C  0.72398466  0.39583917  0.26031017    -0.11700
C1468       C  0.71975969  0.41797473  0.26459523    -0.10100
H1469       H  0.67480067  0.41158468  0.29816665     0.07800
H1470       H  0.68215142  0.37319790  0.29083951     0.11500
H1471       H  0.73783129  0.39172374  0.24973694     0.11300
H1472       H  0.73031019  0.43035414  0.25714881     0.07800
C1473       C  0.54715700  0.33289515  0.25309588    -0.11300
C1474       C  0.56025344  0.32207010  0.26898606     0.05900
C1475       C  0.55163002  0.31873993  0.29028883    -0.10000
C1476       C  0.53097668  0.32718285  0.29602591    -0.11700
C1477       C  0.51835087  0.33896890  0.28054809    -0.01500
C1478       C  0.52628472  0.34126819  0.25884062    -0.10600
C1479       C  0.58366269  0.31617965  0.26439936     0.05900
H1480       H  0.56120536  0.31011359  0.30274593     0.07800
H1481       H  0.52502520  0.32490673  0.31275525     0.11300
H1482       H  0.51681451  0.35038001  0.24666399     0.11600
H1483       H  0.55350538  0.33580303  0.23661486     0.07800
C1484       C  0.59003835  0.30567226  0.24482649    -0.11300
C1485       C  0.61240477  0.30014847  0.24124868    -0.10600
C1486       C  0.62867024  0.30525880  0.25712813    -0.01500
C1487       C  0.62208608  0.31610459  0.27645944    -0.11700
C1488       C  0.59998042  0.32145051  0.28001456    -0.10100
H1489       H  0.57770445  0.30144492  0.23252714     0.07800
H1490       H  0.61691571  0.29180505  0.22621209     0.11500
H1491       H  0.63401506  0.32054465  0.28906686     0.11300
H1492       H  0.59566336  0.32997152  0.29501918     0.07800
C1493       C  0.23373604  0.76447021  0.39372938    -0.11300
C1494       C  0.24748407  0.74637235  0.39829624     0.05900
C1495       C  0.25936283  0.73701053  0.38082365    -0.10000
C1496       C  0.25731391  0.74516505  0.35934829    -0.11700
C1497       C  0.24322975  0.76294292  0.35454446    -0.01500
C1498       C  0.23156466  0.77262904  0.37206488    -0.10600
C1499       C  0.24983120  0.73715877  0.42106556     0.05900
H1500       H  0.27047986  0.72338941  0.38376882     0.07800
H1501       H  0.26668395  0.73725834  0.34642713     0.11300
H1502       H  0.22060871  0.78635203  0.36901925     0.11600
H1503       H  0.22432866  0.77203908  0.40682530     0.07800
C1504       C  0.25187124  0.75087077  0.43952755    -0.11300
C1505       C  0.25622238  0.74204322  0.46055705    -0.10600
C1506       C  0.25867904  0.71935137  0.46349782    -0.01500
C1507       C  0.25575970  0.70563747  0.44522060    -0.11700
C1508       C  0.25130945  0.71440044  0.42431921    -0.10100
H1509       H  0.25098035  0.76845946  0.43757318     0.07800
H1510       H  0.25853732  0.75298683  0.47434840     0.11500
H1511       H  0.25719931  0.68806367  0.44707900     0.11300
H1512       H  0.24931104  0.70332231  0.41059118     0.07800
C1513       C  0.24512653  0.66291620  0.30791069    -0.11300
C1514       C  0.23721345  0.64602139  0.29448188     0.05900
C1515       C  0.22227823  0.65101891  0.27728524    -0.10000
C1516       C  0.21695919  0.67287101  0.27241165    -0.11700
C1517       C  0.22655571  0.68983457  0.28474407    -0.01500
C1518       C  0.23979938  0.68455110  0.30314545    -0.10600
C1519       C  0.24626383  0.62371334  0.29742864     0.05900
H1520       H  0.21588255  0.63818206  0.26680152     0.07800
H1521       H  0.20665397  0.67653132  0.25818593     0.11300
H1522       H  0.24702566  0.69729268  0.31324173     0.11600
H1523       H  0.25622356  0.65942888  0.32159080     0.07800
C1524       C  0.26932138  0.62086256  0.29956126    -0.11300
C1525       C  0.27821720  0.60014963  0.30327925    -0.10600
C1526       C  0.26425289  0.58177312  0.30532317    -0.01500
C1527       C  0.24120066  0.58451202  0.30241725    -0.11700
C1528       C  0.23228944  0.60532393  0.29838708    -0.10100
H1529       H  0.28050272  0.63473994  0.29837973     0.07800
H1530       H  0.29608246  0.59856631  0.30483837     0.11500
H1531       H  0.22998381  0.57073195  0.30406579     0.11300
H1532       H  0.21445980  0.60716689  0.29675927     0.07800
C1533       C  0.35575787  0.77218452  0.31637190    -0.11300
C1534       C  0.37378072  0.78124023  0.30464609     0.05900
C1535       C  0.36921112  0.79490664  0.28635566    -0.10000
C1536       C  0.34724765  0.79865021  0.27949335    -0.11700
C1537       C  0.32943167  0.78873964  0.29074216    -0.01500
C1538       C  0.33393508  0.77588291  0.30951329    -0.10600
C1539       C  0.39705427  0.77517411  0.31076711     0.05900
H1540       H  0.38260450  0.80246788  0.27712791     0.07800
H1541       H  0.34426216  0.80859257  0.26492098     0.11300
H1542       H  0.32053552  0.76814000  0.31861848     0.11600
H1543       H  0.35843774  0.76135393  0.33032469     0.07800
C1544       C  0.40274612  0.77075130  0.33290309    -0.11300
C1545       C  0.42365838  0.76241387  0.33837453    -0.10600
C1546       C  0.43960821  0.75864350  0.32194343    -0.01500
C1547       C  0.43447086  0.76408260  0.29997437    -0.11700
C1548       C  0.41337706  0.77213106  0.29441715    -0.10100
H1549       H  0.39092093  0.77339829  0.34605395     0.07800
H1550       H  0.42730567  0.75862048  0.35549618     0.11500
H1551       H  0.44640406  0.76114130  0.28697210     0.11300
H1552       H  0.40959248  0.77501854  0.27717356     0.07800
C1553       C  0.10804553  0.04432236  0.14687612    -0.11300
C1554       C  0.10863726  0.03093747  0.12813448     0.05900
C1555       C  0.12724197  0.01743277  0.12497706    -0.10000
C1556       C  0.14510329  0.01777745  0.13977802    -0.11700
C1557       C  0.14479987  0.03150454  0.15830175    -0.01500
C1558       C  0.12587750  0.04458316  0.16177919    -0.10600
C1559       C  0.09047434  0.03166004  0.11138772     0.05900
H1560       H  0.12808456  0.00665435  0.11090522     0.07800
H1561       H  0.15938577  0.00762560  0.13636332     0.11300
H1562       H  0.12479940  0.05506595  0.17605319     0.11600
H1563       H  0.09403593  0.05501044  0.14975188     0.07800
C1564       C  0.06800069  0.03316364  0.11763040    -0.11300
C1565       C  0.05114328  0.03376250  0.10161015    -0.10600
C1566       C  0.05641802  0.03300969  0.07900143    -0.01500
C1567       C  0.07891338  0.03172603  0.07285647    -0.11700
C1568       C  0.09566387  0.03105303  0.08880298    -0.10100
H1569       H  0.06342984  0.03356047  0.13490018     0.07800
H1570       H  0.03400838  0.03482531  0.10694483     0.11500
H1571       H  0.08368350  0.03117166  0.05564251     0.11300
H1572       H  0.11278853  0.03034371  0.08338473     0.07800
C1573       C  0.22266249  0.91319657  0.19682493    -0.11300
C1574       C  0.23268500  0.92941085  0.20982541     0.05900
C1575       C  0.24667753  0.92290905  0.22731372    -0.10000
C1576       C  0.24997444  0.90062728  0.23207035    -0.11700
C1577       C  0.23898679  0.88449260  0.21967971    -0.01500
C1578       C  0.22571265  0.89107762  0.20171344    -0.10600
C1579       C  0.22695593  0.95278342  0.20584872     0.05900
H1580       H  0.25471889  0.93505201  0.23753150     0.07800
H1581       H  0.26026140  0.89606552  0.24604403     0.11300
H1582       H  0.21709299  0.87908952  0.19175759     0.11600
H1583       H  0.21157126  0.91761156  0.18342097     0.07800
C1584       C  0.22487899  0.96084767  0.18415051    -0.11300
C1585       C  0.21544402  0.98133604  0.18006296    -0.10600
C1586       C  0.20808602  0.99433637  0.19757585    -0.01500
C1587       C  0.21163792  0.98706739  0.21935368    -0.11700
C1588       C  0.22094845  0.96642286  0.22346416    -0.10100
H1589       H  0.22978547  0.95091535  0.17026704     0.07800
H1590       H  0.21325746  0.98678774  0.16314511     0.11500
H1591       H  0.20608574  0.99682063  0.23312960     0.11300
H1592       H  0.22221910  0.96062618  0.24035151     0.07800
C1593       C  0.24729632  0.33285542  0.38232927    -0.11300
C1594       C  0.23486811  0.32152269  0.39828115     0.05900
C1595       C  0.21740054  0.30783317  0.39145709    -0.10000
C1596       C  0.21348750  0.30447094  0.36884426    -0.11700
C1597       C  0.22694853  0.31486718  0.35288493    -0.01500
C1598       C  0.24341474  0.32959756  0.35997027    -0.10600
C1599       C  0.24181962  0.32306778  0.42165872     0.05900
H1600       H  0.20755936  0.29899512  0.40354354     0.07800
H1601       H  0.20062618  0.29308354  0.36390203     0.11300
H1602       H  0.25387236  0.33819522  0.34821985     0.11600
H1603       H  0.26057722  0.34380576  0.38723035     0.07800
C1604       C  0.26422949  0.31948671  0.42700502    -0.11300
C1605       C  0.27230851  0.32429829  0.44796998    -0.10600
C1606       C  0.25818754  0.33289780  0.46413792    -0.01500
C1607       C  0.23536346  0.33508196  0.45930364    -0.11700
C1608       C  0.22721119  0.33015612  0.43816506    -0.10100
H1609       H  0.27571012  0.31367003  0.41461336     0.07800
H1610       H  0.28982524  0.32190186  0.45134978     0.11500
H1611       H  0.22407779  0.34166917  0.47145232     0.11300
H1612       H  0.20985194  0.33301635  0.43437109     0.07800
C1613       C  0.40009875  0.36716458  0.26196919    -0.11300
C1614       C  0.39303751  0.34591475  0.25681722     0.05900
C1615       C  0.40837167  0.32863473  0.25818372    -0.10000
C1616       C  0.42998273  0.33237525  0.26587602    -0.11700
C1617       C  0.43657136  0.35345528  0.27231742    -0.01500
C1618       C  0.42165287  0.37090140  0.26957890    -0.10600
C1619       C  0.36925458  0.34148122  0.25232235     0.05900
H1620       H  0.40328925  0.31205109  0.25450662     0.07800
H1621       H  0.44110880  0.31860829  0.26793879     0.11300
H1622       H  0.42647194  0.38738188  0.27397443     0.11600
H1623       H  0.38871198  0.38081285  0.26071865     0.07800
C1624       C  0.35292349  0.35080129  0.26584221    -0.11300
C1625       C  0.33068438  0.34473137  0.26366009    -0.10600
C1626       C  0.32425939  0.32927213  0.24783125    -0.01500
C1627       C  0.34039391  0.32088163  0.23343548    -0.11700
C1628       C  0.36274391  0.32680788  0.23578650    -0.10100
H1629       H  0.35748281  0.36200365  0.27886228     0.07800
H1630       H  0.31862396  0.35160197  0.27489542     0.11500
H1631       H  0.33593261  0.30894185  0.22106776     0.11300
H1632       H  0.37500986  0.31955749  0.22503465     0.07800
C1633       C  0.25996255  0.41581800  0.29811002    -0.11300
C1634       C  0.25109347  0.43275041  0.28499484     0.05900
C1635       C  0.23827982  0.42730184  0.26640802    -0.10000
C1636       C  0.23424979  0.40538845  0.26118601    -0.11700
C1637       C  0.24309596  0.38847750  0.27436230    -0.01500
C1638       C  0.25598451  0.39398372  0.29289961    -0.10600
C1639       C  0.25507636  0.45593303  0.29102551     0.05900
H1640       H  0.23106947  0.43998072  0.25610619     0.07800
H1641       H  0.22427089  0.40171149  0.24678386     0.11300
H1642       H  0.26306025  0.38141744  0.30344951     0.11600
H1643       H  0.27021578  0.41943709  0.31233960     0.07800
C1644       C  0.25486175  0.46204515  0.31332028    -0.11300
C1645       C  0.26012539  0.48334904  0.31939600    -0.10600
C1646       C  0.26561094  0.49912159  0.30334908    -0.01500
C1647       C  0.26491970  0.49344420  0.28097296    -0.11700
C1648       C  0.25973449  0.47195720  0.27484009    -0.10100
H1649       H  0.25085777  0.45026364  0.32614962     0.07800
H1650       H  0.26047744  0.48743336  0.33676824     0.11500
H1651       H  0.26938832  0.50531776  0.26837972     0.11300
H1652       H  0.26019384  0.46769171  0.25753551     0.07800
C1653       C  0.22106149  0.22466307  0.13099543    -0.11300
C1654       C  0.23432219  0.23386263  0.11429316     0.05900
C1655       C  0.24986996  0.25015418  0.11992675    -0.10000
C1656       C  0.25150762  0.25755321  0.14174628    -0.11700
C1657       C  0.23742811  0.24894828  0.15818788    -0.01500
C1658       C  0.22255737  0.23210916  0.15259254    -0.10600
C1659       C  0.22986274  0.22791111  0.09097186     0.05900
H1660       H  0.26036126  0.25749398  0.10738019     0.07800
H1661       H  0.26312809  0.27055325  0.14554515     0.11300
H1662       H  0.21152646  0.22501525  0.16482534     0.11600
H1663       H  0.20864316  0.21240190  0.12718851     0.07800
C1664       C  0.22452433  0.20621775  0.08541976    -0.11300
C1665       C  0.21556897  0.20134466  0.06471951    -0.10600
C1666       C  0.21206971  0.21801954  0.04903487    -0.01500
C1667       C  0.21887418  0.23942528  0.05401063    -0.11700
C1668       C  0.22767065  0.24433434  0.07477856    -0.10100
H1669       H  0.22640064  0.19315361  0.09744586     0.07800
H1670       H  0.21082557  0.18463765  0.06116008     0.11500
H1671       H  0.21622542  0.25260941  0.04227154     0.11300
H1672       H  0.23137446  0.26122230  0.07861679     0.07800
C1673       C  0.19165042  0.15682381  0.22045362    -0.11300
C1674       C  0.20651717  0.14093126  0.22850690     0.05900
C1675       C  0.22473262  0.14763849  0.24130644    -0.10000
C1676       C  0.22797409  0.16980946  0.24597045    -0.11700
C1677       C  0.21327034  0.18576779  0.23761443    -0.01500
C1678       C  0.19500328  0.17897192  0.22489530    -0.10600
C1679       C  0.20280819  0.11751398  0.22333060     0.05900
H1680       H  0.23634246  0.13571967  0.24784666     0.07800
H1681       H  0.24222065  0.17446684  0.25584354     0.11300
H1682       H  0.18331706  0.19077211  0.21826866     0.11600
H1683       H  0.17758099  0.15213042  0.21034660     0.07800
C1684       C  0.18130074  0.10867887  0.22474275    -0.11300
C1685       C  0.17695838  0.08749956  0.21752301    -0.10600
C1686       C  0.19401469  0.07461194  0.20871989    -0.01500
C1687       C  0.21584326  0.08289412  0.20846030    -0.11700
C1688       C  0.22021489  0.10421853  0.21571503    -0.10100
H1689       H  0.16769389  0.11837465  0.23102181     0.07800
H1690       H  0.16008180  0.08132836  0.21831919     0.11500
H1691       H  0.22927798  0.07328015  0.20170568     0.11300
H1692       H  0.23696117  0.11064623  0.21443522     0.07800
C1693       C  0.96329197  0.16427529  0.13866899    -0.11300
C1694       C  0.97703106  0.14578652  0.13760983     0.05900
C1695       C  0.99170575  0.14142146  0.15520476    -0.10000
C1696       C  0.99242646  0.15505565  0.17359251    -0.11700
C1697       C  0.97844354  0.17334308  0.17481344    -0.01500
C1698       C  0.96395772  0.17787552  0.15710468    -0.10600
C1699       C  0.97602079  0.13082810  0.11844573     0.05900
H1700       H  0.00275286  0.12747781  0.15469302     0.07800
H1701       H  0.00370580  0.15112920  0.18699281     0.11300
H1702       H  0.95323728  0.19207215  0.15743721     0.11600
H1703       H  0.95177614  0.16801720  0.12541756     0.07800
C1704       C  0.97693635  0.10813502  0.12189297    -0.11300
C1705       C  0.97743771  0.09386433  0.10407680    -0.10600
C1706       C  0.97695647  0.10188123  0.08225769    -0.01500
C1707       C  0.97533497  0.12461177  0.07875671    -0.11700
C1708       C  0.97479718  0.13894402  0.09669143    -0.10100
H1709       H  0.97735625  0.10137280  0.13846067     0.07800
H1710       H  0.97843470  0.07648906  0.10749699     0.11500
H1711       H  0.97478250  0.13136213  0.06218900     0.11300
H1712       H  0.97407988  0.15638262  0.09353262     0.07800
C1713       C  0.90177886  0.23443639  0.21998239    -0.11300
C1714       C  0.89511722  0.23126840  0.24202039     0.05900
C1715       C  0.91067184  0.22359248  0.25754345    -0.10000
C1716       C  0.93211674  0.21792742  0.25083182    -0.11700
C1717       C  0.93811361  0.21969026  0.22852863    -0.01500
C1718       C  0.92302206  0.22855544  0.21327540    -0.10600
C1719       C  0.87160083  0.23467676  0.24813356     0.05900
H1720       H  0.90595111  0.22098892  0.27459804     0.07800
H1721       H  0.94362200  0.21111237  0.26279436     0.11300
H1722       H  0.92752096  0.23039032  0.19604538     0.11600
H1723       H  0.89033539  0.24093592  0.20777736     0.07800
C1724       C  0.86554202  0.24492154  0.26794869    -0.11300
C1725       C  0.84317081  0.24971349  0.27223691    -0.10600
C1726       C  0.82665544  0.24412164  0.25681490    -0.01500
C1727       C  0.83281100  0.23256547  0.23778180    -0.11700
C1728       C  0.85491500  0.22793274  0.23352565    -0.10100
H1729       H  0.87813145  0.25002479  0.27963273     0.07800
H1730       H  0.83892382  0.25838171  0.28716132     0.11500
H1731       H  0.82061967  0.22757664  0.22563610     0.11300
H1732       H  0.85898189  0.21930451  0.21851653     0.07800
C1733       C  0.04809534  0.22792960  0.25692029    -0.11300
C1734       C  0.06335636  0.23463410  0.24063403     0.05900
C1735       C  0.05665034  0.23466374  0.21840400    -0.10000
C1736       C  0.03585526  0.22676470  0.21237402    -0.11700
C1737       C  0.02104920  0.21893895  0.22841480    -0.01500
C1738       C  0.02697732  0.22021025  0.25083446    -0.10600
C1739       C  0.08675100  0.24013314  0.24611234     0.05900
H1740       H  0.06772573  0.24042421  0.20553012     0.07800
H1741       H  0.03136318  0.22661625  0.19504919     0.11300
H1742       H  0.01562946  0.21450245  0.26349816     0.11600
H1743       H  0.05279232  0.22781644  0.27418293     0.07800
C1744       C  0.09245464  0.25306035  0.26440350    -0.11300
C1745       C  0.11471842  0.25900583  0.26818150    -0.10600
C1746       C  0.13153635  0.25199995  0.25376447    -0.01500
C1747       C  0.12568807  0.23848303  0.23597333    -0.11700
C1748       C  0.10371516  0.23258581  0.23229292    -0.10100
H1749       H  0.07967946  0.25908294  0.27534245     0.07800
H1750       H  0.11867383  0.26945839  0.28199787     0.11500
H1751       H  0.13808846  0.23254252  0.22456185     0.11300
H1752       H  0.09999193  0.22210514  0.21842523     0.07800
C1753       C  0.74930682  0.95825787  0.22407326    -0.11300
C1754       C  0.74588008  0.94302467  0.20709293     0.05900
C1755       C  0.74993736  0.94963016  0.18517016    -0.10000
C1756       C  0.75847691  0.97040222  0.18045989    -0.11700
C1757       C  0.76306334  0.98518107  0.19752083    -0.01500
C1758       C  0.75779795  0.97913144  0.21933054    -0.10600
C1759       C  0.74028008  0.91977834  0.21229271     0.05900
H1760       H  0.74698373  0.93852211  0.17163727     0.07800
H1761       H  0.76185548  0.97479598  0.16343885     0.11300
H1762       H  0.76122911  0.99014847  0.23283424     0.11600
H1763       H  0.74652983  0.95368173  0.24114465     0.07800
C1764       C  0.75093617  0.90293101  0.20078514    -0.11300
C1765       C  0.74762773  0.88108513  0.20672395    -0.10600
C1766       C  0.73353779  0.87533533  0.22436844    -0.01500
C1767       C  0.72212105  0.89206232  0.23537615    -0.11700
C1768       C  0.72555619  0.91408634  0.22947318    -0.10100
H1769       H  0.76263379  0.90663028  0.18770745     0.07800
H1770       H  0.75662176  0.86866444  0.19776358     0.11500
H1771       H  0.71119964  0.88819111  0.24905302     0.11300
H1772       H  0.71693306  0.92667039  0.23853921     0.07800
C1773       C  0.78354399  0.10076267  0.22524085    -0.11300
C1774       C  0.76141259  0.10794763  0.22540485     0.05900
C1775       C  0.74451601  0.09351467  0.21863935    -0.10000
C1776       C  0.74991373  0.07275695  0.21051458    -0.11700
C1777       C  0.77226576  0.06619038  0.20911050    -0.01500
C1778       C  0.78890117  0.08013287  0.21723167    -0.10600
C1779       C  0.75651797  0.13107837  0.23075204     0.05900
H1780       H  0.72731141  0.09870157  0.21859467     0.07800
H1781       H  0.73676614  0.06229156  0.20437973     0.11300
H1782       H  0.80619604  0.07525884  0.21686472     0.11600
H1783       H  0.79681114  0.11141277  0.23077439     0.07800
C1784       C  0.73969735  0.13668674  0.24569660    -0.11300
C1785       C  0.73542213  0.15871127  0.25042240    -0.10600
C1786       C  0.74764870  0.17555892  0.24001119    -0.01500
C1787       C  0.76451069  0.16977209  0.22510511    -0.11700
C1788       C  0.76890788  0.14783998  0.22060467    -0.10100
H1789       H  0.73003081  0.12404017  0.25384678     0.07800
H1790       H  0.72238162  0.16253689  0.26205780     0.11500
H1791       H  0.77433424  0.18220219  0.21680895     0.11300
H1792       H  0.78184839  0.14395184  0.20886395     0.07800
C1793       C  0.85673247  0.01090948  0.14328288    -0.11300
C1794       C  0.85745262  0.02650865  0.12618566     0.05900
C1795       C  0.84089104  0.04260527  0.12500567    -0.10000
C1796       C  0.82359938  0.04285521  0.14037923    -0.11700
C1797       C  0.82236723  0.02680231  0.15705692    -0.01500
C1798       C  0.83921766  0.01093331  0.15847210    -0.10600
C1799       C  0.87498878  0.02573964  0.10913146     0.05900
H1800       H  0.84129983  0.05492718  0.11207070     0.07800
H1801       H  0.81085586  0.05526084  0.13887938     0.11300
H1802       H  0.83883344  0.99856471  0.17135496     0.11600
H1803       H  0.86939198  0.99838878  0.14451626     0.07800
C1804       C  0.89752471  0.02604216  0.11505617    -0.11300
C1805       C  0.91396278  0.02658350  0.09876260    -0.10600
C1806       C  0.90819262  0.02660047  0.07619171    -0.01500
C1807       C  0.88556659  0.02557291  0.07037975    -0.11700
C1808       C  0.86915474  0.02526172  0.08669566    -0.10100
H1809       H  0.90237758  0.02643818  0.13227736     0.07800
H1810       H  0.93119901  0.02728585  0.10390607     0.11500
H1811       H  0.88048703  0.02531521  0.05322769     0.11300
H1812       H  0.85182960  0.02472147  0.08181358     0.07800
C1813       C  0.05063038  0.78193863  0.19618921    -0.11300
C1814       C  0.06647041  0.79801410  0.20141136     0.05900
C1815       C  0.05984080  0.81995604  0.20242172    -0.10000
C1816       C  0.03814159  0.82591991  0.19707983    -0.11700
C1817       C  0.02260384  0.81011352  0.19028354    -0.01500
C1818       C  0.02885689  0.78795447  0.19054591    -0.10600
C1819       C  0.09017203  0.79240534  0.20469873     0.05900
H1820       H  0.07163468  0.83257886  0.20694084     0.07800
H1821       H  0.03367018  0.84305207  0.19769492     0.11300
H1822       H  0.01728089  0.77540774  0.18536974     0.11600
H1823       H  0.05538246  0.76489059  0.19542942     0.07800
C1824       C  0.09662005  0.77590328  0.21958722    -0.11300
C1825       C  0.11918019  0.77233312  0.22408262    -0.10600
C1826       C  0.13561642  0.78523678  0.21376904    -0.01500
C1827       C  0.12909194  0.80087612  0.19793526    -0.11700
C1828       C  0.10661731  0.80441769  0.19347536    -0.10100
H1829       H  0.08420798  0.76645211  0.22842709     0.07800
H1830       H  0.12368631  0.76022387  0.23642551     0.11500
H1831       H  0.14134060  0.81087405  0.18947914     0.11300
H1832       H  0.10201972  0.81692822  0.18157141     0.07800
C1833       C  0.91520947  0.78252760  0.20920466    -0.11300
C1834       C  0.89788803  0.78174664  0.19360735     0.05900
C1835       C  0.90226416  0.78898918  0.17192365    -0.10000
C1836       C  0.92273789  0.79842344  0.16648301    -0.11700
C1837       C  0.93955679  0.80054633  0.18246984    -0.01500
C1838       C  0.93579044  0.79181534  0.20370037    -0.10600
C1839       C  0.87469577  0.77653243  0.20062287     0.05900
H1840       H  0.88956569  0.78806008  0.15927254     0.07800
H1841       H  0.92527027  0.80438415  0.14979784     0.11300
H1842       H  0.94832061  0.79321050  0.21646094     0.11600
H1843       H  0.91246596  0.77727696  0.22608389     0.07800
C1844       C  0.87001324  0.76109091  0.21742013    -0.11300
C1845       C  0.84837126  0.75892574  0.22589845    -0.10600
C1846       C  0.83116668  0.77232171  0.21784953    -0.01500
C1847       C  0.83573090  0.78694283  0.20046520    -0.11700
C1848       C  0.85708441  0.78897449  0.19195336    -0.10100
H1849       H  0.88313909  0.75106711  0.22433777     0.07800
H1850       H  0.84530557  0.74746930  0.23927735     0.11500
H1851       H  0.82285212  0.79742530  0.19380019     0.11300
H1852       H  0.85993423  0.80129797  0.17935530     0.07800
C1853       C  0.96594674  0.88283125  0.11224327    -0.11300
C1854       C  0.98031836  0.90042647  0.11670560     0.05900
C1855       C  0.99394686  0.89940364  0.13551344    -0.10000
C1856       C  0.99335653  0.88109981  0.14945562    -0.11700
C1857       C  0.97917025  0.86332947  0.14488033    -0.01500
C1858       C  0.96535429  0.86450500  0.12618241    -0.10600
C1859       C  0.98135492  0.91959424  0.10155749     0.05900
H1860       H  0.00533941  0.91261772  0.13924525     0.07800
H1861       H  0.00403543  0.88088497  0.16386288     0.11300
H1862       H  0.95443982  0.85104284  0.12202365     0.11600
H1863       H  0.95511777  0.88326204  0.09794800     0.07800
C1864       C  0.98164260  0.91652962  0.07863588    -0.11300
C1865       C  0.98273396  0.93443838  0.06426527    -0.10600
C1866       C  0.98352609  0.95594474  0.07242571    -0.01500
C1867       C  0.98312496  0.95901861  0.09540590    -0.11700
C1868       C  0.98214812  0.94101682  0.10981721    -0.10100
H1869       H  0.98130270  0.90021704  0.07179529     0.07800
H1870       H  0.98290645  0.93134505  0.04669017     0.11500
H1871       H  0.98355475  0.97531074  0.10227378     0.11300
H1872       H  0.98171208  0.94384963  0.12743411     0.07800
C1873       C  0.22178524  0.92251120  0.75926021    -0.11300
C1874       C  0.20368908  0.92763220  0.77289392     0.05900
C1875       C  0.19131423  0.91061390  0.78254341    -0.10000
C1876       C  0.19671716  0.88890813  0.77852978    -0.11700
C1877       C  0.21468408  0.88365069  0.76476058    -0.01500
C1878       C  0.22717593  0.90067690  0.75512576    -0.10600
C1879       C  0.19787033  0.95054580  0.77783349     0.05900
H1880       H  0.17761136  0.91409579  0.79353818     0.07800
H1881       H  0.18677764  0.87624321  0.78631857     0.11300
H1882       H  0.24120414  0.89714526  0.74456723     0.11600
H1883       H  0.23161566  0.93537567  0.75167987     0.07800
C1884       C  0.21443588  0.96566448  0.78365202    -0.11300
C1885       C  0.20858329  0.98632126  0.79138078    -0.10600
C1886       C  0.18609926  0.99211344  0.79345484    -0.01500
C1887       C  0.16960800  0.97747048  0.78644867    -0.11700
C1888       C  0.17544881  0.95689824  0.77861846    -0.10100
H1889       H  0.23182416  0.96112785  0.78331687     0.07800
H1890       H  0.22158119  0.99735679  0.79677257     0.11500
H1891       H  0.15218738  0.98178283  0.78750625     0.11300
H1892       H  0.16239382  0.94568598  0.77375353     0.07800
C1893       C  0.21101495  0.10790735  0.81356428    -0.11300
C1894       C  0.21125047  0.11466672  0.79137875     0.05900
C1895       C  0.20513432  0.09979179  0.77488740    -0.10000
C1896       C  0.19764484  0.07887118  0.78065362    -0.11700
C1897       C  0.19620069  0.07261330  0.80296704    -0.01500
C1898       C  0.20355902  0.08707704  0.81930763    -0.10600
C1899       C  0.21556516  0.13781684  0.78584661     0.05900
H1900       H  0.20500415  0.10473408  0.75768258     0.07800
H1901       H  0.19192440  0.06801393  0.76778053     0.11300
H1902       H  0.20298678  0.08244948  0.83659239     0.11600
H1903       H  0.21597922  0.11901523  0.82652691     0.07800
C1904       C  0.20494626  0.15413655  0.79803836    -0.11300
C1905       C  0.20783472  0.17606532  0.79258186    -0.10600
C1906       C  0.22139665  0.18225123  0.77472858    -0.01500
C1907       C  0.23242348  0.16591980  0.76272206    -0.11700
C1908       C  0.22940107  0.14382862  0.76816600    -0.10100
H1909       H  0.19393257  0.14989869  0.81154427     0.07800
H1910       H  0.19918487  0.18815746  0.80229080     0.11500
H1911       H  0.24313781  0.17017066  0.74899278     0.11300
H1912       H  0.23784418  0.13146200  0.75862752     0.07800
C1913       C  0.07061682  0.04173982  0.89463201    -0.11300
C1914       C  0.09264653  0.03746354  0.90101439     0.05900
C1915       C  0.09776216  0.03556102  0.92355828    -0.10000
C1916       C  0.08104350  0.03730038  0.93939641    -0.11700
C1917       C  0.05885432  0.04099214  0.93300807    -0.01500
C1918       C  0.05388891  0.04349714  0.91044687    -0.10600
C1919       C  0.11016268  0.03495017  0.88411221     0.05900
H1920       H  0.11460107  0.03216308  0.92890948     0.07800
H1921       H  0.08546052  0.03518676  0.95661664     0.11300
H1922       H  0.03702348  0.04650494  0.90494437     0.11600
H1923       H  0.06632638  0.04371198  0.87736251     0.07800
C1924       C  0.10603077  0.02270685  0.86499190    -0.11300
C1925       C  0.12209343  0.02126493  0.84845412    -0.10600
C1926       C  0.14254290  0.03213794  0.85069053    -0.01500
C1927       C  0.14690901  0.04386557  0.87010338    -0.11700
C1928       C  0.13090271  0.04519680  0.88669257    -0.10100
H1929       H  0.09029072  0.01436166  0.86277970     0.07800
H1930       H  0.11828147  0.01217919  0.83364043     0.11500
H1931       H  0.16267303  0.05215677  0.87236523     0.11300
H1932       H  0.13450447  0.05475085  0.90125523     0.07800
C1933       C  0.90758004  0.85090086  0.77997206    -0.11300
C1934       C  0.90324269  0.82839322  0.77832163     0.05900
C1935       C  0.92090345  0.81352993  0.78082977     0.19000
C1936       C  0.94228839  0.82105737  0.78584145    -0.11700
C1937       C  0.94624065  0.84351041  0.78854306    -0.01500
C1938       C  0.92883591  0.85836928  0.78516528    -0.10600
C1939       C  0.88012581  0.82054925  0.77531378     0.05900
H1940       H  0.91801343  0.79608234  0.77977819     0.07800
H1941       H  0.95553895  0.80934158  0.78842579     0.11300
H1942       H  0.93167228  0.87578562  0.78678045     0.11600
H1943       H  0.89441811  0.86274058  0.77758428     0.07800
C1944       C  0.86267927  0.83043058  0.78695708    -0.11300
C1945       C  0.84089055  0.82290375  0.78468567    -0.10600
C1946       C  0.83603908  0.80532145  0.77066962    -0.01500
C1947       C  0.85349122  0.79550648  0.75891986    -0.11700
C1948       C  0.87532270  0.80299554  0.76127793    -0.10100
H1949       H  0.86593164  0.84378432  0.79816049     0.07800
H1950       H  0.82785681  0.83089823  0.79390529     0.11500
H1951       H  0.85032036  0.78193805  0.74795971     0.11300
H1952       H  0.88841397  0.79518616  0.75198128     0.07800
C1953       C  0.09804675  0.81098408  0.74358066    -0.11300
C1954       C  0.09343001  0.82967360  0.75621682     0.05900
C1955       C  0.11125219  0.84180640  0.76484784    -0.10000
C1956       C  0.13304318  0.83516872  0.76150115    -0.11700
C1957       C  0.13765421  0.81608019  0.74965662    -0.01500
C1958       C  0.12003138  0.80426741  0.74025831    -0.10600
C1959       C  0.07029776  0.83597003  0.76175517     0.05900
H1960       H  0.10842246  0.85600700  0.77501645     0.07800
H1961       H  0.14633732  0.84471441  0.76877204     0.11300
H1962       H  0.12319112  0.78945771  0.73109581     0.11600
H1963       H  0.08468940  0.80140900  0.73651676     0.07800
C1964       C  0.06470923  0.85813814  0.76429647    -0.11300
C1965       C  0.04415373  0.86403353  0.77294373    -0.10600
C1966       C  0.02860688  0.84791877  0.77885627    -0.01500
C1967       C  0.03343491  0.82587208  0.77485283    -0.11700
C1968       C  0.05418500  0.81991581  0.76653600    -0.10100
H1969       H  0.07646170  0.87096014  0.76016873     0.07800
H1970       H  0.04056499  0.88118270  0.77549848     0.11500
H1971       H  0.02164600  0.81318487  0.77933026     0.11300
H1972       H  0.05797423  0.80270203  0.76498969     0.07800
C1973       C  0.00655589  0.92282968  0.85556551    -0.11300
C1974       C  0.99304162  0.91983408  0.87422031     0.05900
C1975       C  0.97914145  0.90137147  0.87542211    -0.10000
C1976       C  0.97854659  0.88634139  0.85818962    -0.11700
C1977       C  0.99183838  0.88945607  0.83936087    -0.01500
C1978       C  0.00602255  0.90775489  0.83834776    -0.10600
C1979       C  0.99311262  0.93603269  0.89228003     0.05900
H1980       H  0.96841160  0.89876684  0.88954117     0.07800
H1981       H  0.96766416  0.87227088  0.85960572     0.11300
H1982       H  0.01632041  0.91072685  0.82399088     0.11600
H1983       H  0.01755341  0.93683169  0.85431646     0.07800
C1984       C  0.99330526  0.92903169  0.91439344    -0.11300
C1985       C  0.99223814  0.94418718  0.93147109    -0.10600
C1986       C  0.99082325  0.96672455  0.92681410    -0.01500
C1987       C  0.99115571  0.97373639  0.90464591    -0.11700
C1988       C  0.99232757  0.95854434  0.88756376    -0.10100
H1989       H  0.99426353  0.91178430  0.91847498     0.07800
H1990       H  0.99229203  0.93817047  0.94832771     0.11500
H1991       H  0.99021346  0.99095208  0.90043909     0.11300
H1992       H  0.99203010  0.96437157  0.87064078     0.07800
C1993       C  0.90328686  0.24881411  0.79040042    -0.11300
C1994       C  0.89769051  0.24451459  0.76838126     0.05900
C1995       C  0.91383636  0.23598783  0.75416309    -0.10000
C1996       C  0.93484620  0.23025360  0.76243191    -0.11700
C1997       C  0.93976428  0.23298176  0.78497249    -0.01500
C1998       C  0.92411982  0.24312130  0.79861413    -0.10600
C1999       C  0.87415305  0.24576805  0.76174494     0.05900
H2000       H  0.90972798  0.23249322  0.73713312     0.07800
H2001       H  0.94672821  0.22254457  0.75158217     0.11300
H2002       H  0.92772991  0.24586038  0.81589862     0.11600
H2003       H  0.89106092  0.25556217  0.80154080     0.07800
C2004       C  0.85865596  0.23307153  0.77340740    -0.11300
C2005       C  0.83602547  0.23527974  0.76930801    -0.10600
C2006       C  0.82830880  0.25039006  0.75350727    -0.01500
C2007       C  0.84391954  0.26240595  0.74099241    -0.11700
C2008       C  0.86677240  0.26006713  0.74507756    -0.10100
H2009       H  0.86411322  0.22175141  0.78614241     0.07800
H2010       H  0.82452698  0.22556891  0.77904454     0.11500
H2011       H  0.83846381  0.27422512  0.72874428     0.11300
H2012       H  0.87856590  0.26998864  0.73592512     0.07800
C2013       C  0.06169577  0.23484535  0.79216625    -0.11300
C2014       C  0.06561606  0.23425346  0.76937606     0.05900
C2015       C  0.04793652  0.22994409  0.75492067    -0.10000
C2016       C  0.02666875  0.22565153  0.76328849    -0.11700
C2017       C  0.02282376  0.22584569  0.78620664    -0.01500
C2018       C  0.04051331  0.23085630  0.80048345    -0.10600
C2019       C  0.08839823  0.23769622  0.76116596     0.05900
H2020       H  0.05072916  0.22935077  0.73727887     0.07800
H2021       H  0.01338903  0.22168320  0.75190295     0.11300
H2022       H  0.03798355  0.23169451  0.81815014     0.11600
H2023       H  0.07509714  0.23846169  0.80355498     0.07800
C2024       C  0.09330659  0.25456070  0.74607272    -0.11300
C2025       C  0.11547492  0.25969972  0.74110128    -0.10600
C2026       C  0.13286856  0.24792059  0.75114501    -0.01500
C2027       C  0.12769364  0.23016317  0.76509171    -0.11700
C2028       C  0.10571327  0.22518114  0.77011820    -0.10100
H2029       H  0.08008835  0.26446068  0.73912171     0.07800
H2030       H  0.11900191  0.27358584  0.73046024     0.11500
H2031       H  0.14071377  0.22064303  0.77291681     0.11300
H2032       H  0.10221843  0.21197919  0.78163597     0.07800
C2033       C  0.98162771  0.15010317  0.92216845    -0.11300
C2034       C  0.97666649  0.14426707  0.90023619     0.05900
C2035       C  0.97276176  0.12212775  0.89555243    -0.10000
C2036       C  0.97386891  0.10622971  0.91213460    -0.11700
C2037       C  0.97895917  0.11186737  0.93402699    -0.01500
C2038       C  0.98263504  0.13407787  0.93893195    -0.10600
C2039       C  0.97596881  0.16078281  0.88196149     0.05900
H2040       H  0.96928253  0.11692529  0.87885552     0.07800
H2041       H  0.97076338  0.08937946  0.90767807     0.11300
H2042       H  0.98655419  0.13903013  0.95562046     0.11600
H2043       H  0.98457451  0.16704363  0.92638131     0.07800
C2044       C  0.96015667  0.15887259  0.86491354    -0.11300
C2045       C  0.96067978  0.17288167  0.84658017    -0.10600
C2046       C  0.97698460  0.18926596  0.84478999    -0.01500
C2047       C  0.99237380  0.19170933  0.86214535    -0.11700
C2048       C  0.99184495  0.17766230  0.88054678    -0.10100
H2049       H  0.94746789  0.14630031  0.86559650     0.07800
H2050       H  0.94868765  0.17044605  0.83346872     0.11500
H2051       H  0.00497241  0.20437346  0.86138607     0.11300
H2052       H  0.00434049  0.17954515  0.89328126     0.07800
C2053       C  0.77103021  0.95852578  0.76394745    -0.11300
C2054       C  0.76812433  0.94164491  0.77948478     0.05900
C2055       C  0.76933711  0.94641935  0.80208469    -0.10000
C2056       C  0.77479483  0.96739519  0.80905660    -0.11700
C2057       C  0.77915549  0.98401825  0.79356181    -0.01500
C2058       C  0.77655771  0.97960374  0.77094705    -0.10600
C2059       C  0.76566681  0.91872769  0.77246857     0.05900
H2060       H  0.76667209  0.93371273  0.81436287     0.07800
H2061       H  0.77616792  0.97050694  0.82658493     0.11300
H2062       H  0.77987808  0.99214961  0.75867433     0.11600
H2063       H  0.77016680  0.95515912  0.74643996     0.07800
C2064       C  0.75002739  0.91259932  0.75640295    -0.11300
C2065       C  0.74679111  0.89047460  0.75147575    -0.10600
C2066       C  0.75921092  0.87432620  0.76255687    -0.01500
C2067       C  0.77578543  0.88073271  0.77757921    -0.11700
C2068       C  0.77892734  0.90266225  0.78249688    -0.10100
H2069       H  0.73975530  0.92481201  0.74835826     0.07800
H2070       H  0.73399053  0.88597823  0.73975345     0.11500
H2071       H  0.78599380  0.86873351  0.78604829     0.11300
H2072       H  0.79152818  0.90707971  0.79447637     0.07800
C2073       C  0.78863921  0.10238988  0.77566480    -0.11300
C2074       C  0.76616801  0.10815695  0.77782157     0.05900
C2075       C  0.75070629  0.09213167  0.78442436    -0.10000
C2076       C  0.75789928  0.07108746  0.79017589    -0.11700
C2077       C  0.78061100  0.06588800  0.78938974    -0.01500
C2078       C  0.79580127  0.08148492  0.78148677    -0.10600
C2079       C  0.75946123  0.13129280  0.77512738     0.05900
H2080       H  0.73330168  0.09621066  0.78627597     0.07800
H2081       H  0.74594353  0.05926422  0.79633278     0.11300
H2082       H  0.81334599  0.07765904  0.78047404     0.11600
H2083       H  0.80079890  0.11432229  0.77016293     0.07800
C2084       C  0.77229964  0.14778901  0.78495254    -0.11300
C2085       C  0.76639363  0.16971317  0.78263244    -0.10600
C2086       C  0.74756124  0.17571390  0.77026042    -0.01500
C2087       C  0.73445393  0.15914457  0.76072489    -0.11700
C2088       C  0.74030316  0.13711666  0.76322532    -0.10100
H2089       H  0.78690051  0.14369420  0.79461162     0.07800
H2090       H  0.77681100  0.18197198  0.79030919     0.11500
H2091       H  0.71976299  0.16318895  0.75119129     0.11300
H2092       H  0.73010974  0.12467613  0.75554679     0.07800
C2093       C  0.86537528  0.04161381  0.85651401    -0.11300
C2094       C  0.86302116  0.02872431  0.87571451     0.05900
C2095       C  0.84450788  0.01476312  0.87755988    -0.10000
C2096       C  0.82869406  0.01373134  0.86070495    -0.11700
C2097       C  0.83096149  0.02668366  0.84161634    -0.01500
C2098       C  0.84948380  0.04062115  0.83965233    -0.10600
C2099       C  0.87980532  0.02961910  0.89374219     0.05900
H2100       H  0.84234765  0.00440260  0.89196717     0.07800
H2101       H  0.81447535  0.00301319  0.86275000     0.11300
H2102       H  0.85170723  0.05068294  0.82502769     0.11600
H2103       H  0.87933646  0.05268245  0.85465051     0.07800
C2104       C  0.90259562  0.03106175  0.88889865    -0.11300
C2105       C  0.91835578  0.03155851  0.90587657    -0.10600
C2106       C  0.91171547  0.03071154  0.92814867    -0.01500
C2107       C  0.88891867  0.02903127  0.93296381    -0.11700
C2108       C  0.87316844  0.02858746  0.91597719    -0.10100
H2109       H  0.90829252  0.03148996  0.87195584     0.07800
H2110       H  0.93577023  0.03265119  0.90149166     0.11500
H2111       H  0.88317059  0.02829915  0.94988114     0.11300
H2112       H  0.85572682  0.02771876  0.92028864     0.07800
C2113       C  0.19901336  0.82479449  0.12100798    -0.11300
C2114       C  0.21420085  0.81827110  0.10475224     0.05900
C2115       C  0.23323530  0.80654110  0.11123880    -0.10000
C2116       C  0.23677590  0.80122272  0.13350639    -0.11700
C2117       C  0.22143485  0.80771095  0.14970136    -0.01500
C2118       C  0.20256981  0.81959307  0.14315124    -0.10600
C2119       C  0.21008535  0.82422897  0.08128130     0.05900
H2120       H  0.24521699  0.80125111  0.09908851     0.07800
H2121       H  0.25153909  0.79211722  0.13803588     0.11300
H2122       H  0.19040934  0.82485189  0.15514562     0.11600
H2123       H  0.18443971  0.83426102  0.11665824     0.07800
C2124       C  0.18831997  0.82384227  0.07280847    -0.11300
C2125       C  0.18378152  0.83199826  0.05173478    -0.10600
C2126       C  0.20092591  0.84052194  0.03850329    -0.01500
C2127       C  0.22288712  0.83978772  0.04638715    -0.11700
C2128       C  0.22743485  0.83174932  0.06763138    -0.10100
H2129       H  0.17467083  0.81762701  0.08267731     0.07800
H2130       H  0.16674710  0.83202082  0.04589596     0.11500
H2131       H  0.23636879  0.84638052  0.03653841     0.11300
H2132       H  0.24435371  0.83237349  0.07372647     0.07800
C2133       C  0.22708504  0.86473554  0.92093167    -0.11300
C2134       C  0.23065733  0.84289428  0.91480271     0.05900
C2135       C  0.22714060  0.82628757  0.93062982    -0.10000
C2136       C  0.21888607  0.83131957  0.95159206    -0.11700
C2137       C  0.21395572  0.85305804  0.95716155    -0.01500
C2138       C  0.21880342  0.86974756  0.94182297    -0.10600
C2139       C  0.23585324  0.83737101  0.89146205     0.05900
H2140       H  0.22956608  0.80928354  0.92642358     0.07800
H2141       H  0.21522401  0.81807380  0.96298759     0.11300
H2142       H  0.21566839  0.88669775  0.94580447     0.11600
H2143       H  0.23013129  0.87795470  0.90932745     0.07800
C2144       C  0.22498954  0.84849130  0.87415436    -0.11300
C2145       C  0.22781661  0.84202064  0.85228618    -0.10600
C2146       C  0.24170148  0.82433036  0.84709604    -0.01500
C2147       C  0.25335841  0.81378907  0.86423497    -0.11700
C2148       C  0.25034563  0.82014250  0.88621931    -0.10100
H2149       H  0.21345794  0.86160455  0.87756781     0.07800
H2150       H  0.21859016  0.85049448  0.83946150     0.11500
H2151       H  0.26402345  0.79999810  0.86075794     0.11300
H2152       H  0.25906661  0.81133956  0.89914945     0.07800
C2153       C  0.07556614  0.92965266  0.99609827    -0.11300
C2154       C  0.09760391  0.93698970  0.99838545     0.05900
C2155       C  0.10156943  0.95926481  0.00226665    -0.10000
C2156       C  0.08389831  0.97392085  0.00379266    -0.11700
C2157       C  0.06182052  0.96664593  0.00143610    -0.01500
C2158       C  0.05785879  0.94431480  0.99759956    -0.10600
C2159       C  0.11640832  0.92141844  0.99720566     0.05900
H2160       H  0.11835719  0.96531945  0.00445466     0.07800
H2161       H  0.08759117  0.99097252  0.00685852     0.11300
H2162       H  0.04109043  0.93815265  0.99557249     0.11600
H2163       H  0.07203407  0.91259511  0.99288619     0.07800
C2164       C  0.11502073  0.90097725  0.00782456    -0.11300
C2165       C  0.13299074  0.88659609  0.00747946    -0.10600
C2166       C  0.15274149  0.89230201  0.99646819    -0.01500
C2167       C  0.15401959  0.91258040  0.98549069    -0.11700
C2168       C  0.13604224  0.92703358  0.98591351    -0.10100
H2169       H  0.10019040  0.89628292  0.01681108     0.07800
H2170       H  0.13144205  0.87095714  0.01585160     0.11500
H2171       H  0.16907708  0.91743319  0.97697141     0.11300
H2172       H  0.13747492  0.94259966  0.97738495     0.07800
C2173       C  0.76371571  0.23070188  0.08268896    -0.11300
C2174       C  0.74129290  0.23086486  0.08926115     0.05900
C2175       C  0.72496196  0.22499560  0.07372571    -0.10000
C2176       C  0.73107070  0.21794613  0.05255072    -0.11700
C2177       C  0.75363199  0.21662420  0.04651170    -0.01500
C2178       C  0.76978100  0.22365203  0.06170106    -0.10600
C2179       C  0.73552384  0.23563914  0.11269273     0.05900
H2180       H  0.70755728  0.22491045  0.07824560     0.07800
H2181       H  0.71819951  0.21265777  0.04126273     0.11300
H2182       H  0.78725614  0.22349946  0.05743468     0.11600
H2183       H  0.77672328  0.23574297  0.09395244     0.07800
C2184       C  0.74935571  0.22766224  0.12956690    -0.11300
C2185       C  0.74507727  0.23240582  0.15154270    -0.10600
C2186       C  0.72675065  0.24533839  0.15759886    -0.01500
C2187       C  0.71230853  0.25277926  0.14087420    -0.11700
C2188       C  0.71664106  0.24791890  0.11858475    -0.10100
H2189       H  0.76363046  0.21760109  0.12581326     0.07800
H2190       H  0.75651534  0.22603321  0.16381602     0.11500
H2191       H  0.69806521  0.26275786  0.14493438     0.11300
H2192       H  0.70559938  0.25425505  0.10595432     0.07800
C2193       C  0.74213711  0.21625944  0.88043932    -0.11300
C2194       C  0.72787859  0.22466175  0.89663130     0.05900
C2195       C  0.71173926  0.24007344  0.89022840    -0.10000
C2196       C  0.71008917  0.24711688  0.86817009    -0.11700
C2197       C  0.72472905  0.23909325  0.85206078    -0.01500
C2198       C  0.74068264  0.22345474  0.85851532    -0.10600
C2199       C  0.73113180  0.21843367  0.92025423     0.05900
H2200       H  0.70050867  0.24680670  0.90234552     0.07800
H2201       H  0.69768833  0.25922666  0.86384970     0.11300
H2202       H  0.75231892  0.21691462  0.84665985     0.11600
H2203       H  0.75498354  0.20464039  0.88488472     0.07800
C2204       C  0.73534495  0.19659231  0.92629470    -0.11300
C2205       C  0.74205575  0.19126634  0.94780099    -0.10600
C2206       C  0.74491693  0.20766473  0.96374571    -0.01500
C2207       C  0.73910711  0.22926720  0.95816253    -0.11700
C2208       C  0.73225182  0.23458432  0.93663973    -0.10100
H2209       H  0.73417756  0.18372291  0.91415636     0.07800
H2210       H  0.74588447  0.17438342  0.95175198     0.11500
H2211       H  0.74118292  0.24227486  0.97002306     0.11300
H2212       H  0.72916880  0.25155926  0.93247187     0.07800
C2213       C  0.88749443  0.13780734  0.00625036    -0.11300
C2214       C  0.86589730  0.12927309  0.00325441     0.05900
C2215       C  0.86350569  0.10658542  0.00047604    -0.10000
C2216       C  0.88200730  0.09287826  0.00068049    -0.11700
C2217       C  0.90355290  0.10132234  0.00394748    -0.01500
C2218       C  0.90609043  0.12399789  0.00663816    -0.10600
C2219       C  0.84588926  0.14377253  0.00321576     0.05900
H2220       H  0.84724903  0.09921840  0.99855733     0.07800
H2221       H  0.87928456  0.07552125  0.99844630     0.11300
H2222       H  0.92241563  0.13109115  0.00907582     0.11600
H2223       H  0.89012076  0.15521180  0.00806921     0.07800
C2224       C  0.84508771  0.16253474  0.01651476    -0.11300
C2225       C  0.82614302  0.17580187  0.01680364    -0.10600
C2226       C  0.80740505  0.17060993  0.00392603    -0.01500
C2227       C  0.80819943  0.15194431  0.99056352    -0.11700
C2228       C  0.82717526  0.13876784  0.99014550    -0.10100
H2229       H  0.85894799  0.16683272  0.02704849     0.07800
H2230       H  0.82620647  0.19022128  0.02706938     0.11500
H2231       H  0.79401481  0.14735757  0.98057069     0.11300
H2232       H  0.82717222  0.12473522  0.97936982     0.07800
C2233       C  0.76952233  0.79803065  0.07172929    -0.11300
C2234       C  0.78197125  0.80500890  0.09015136     0.05900
C2235       C  0.80207714  0.81612769  0.08623342    -0.10000
C2236       C  0.80933318  0.82037665  0.06480916    -0.11700
C2237       C  0.79624867  0.81473869  0.04636973    -0.01500
C2238       C  0.77640400  0.80308238  0.05014936    -0.10600
C2239       C  0.77397643  0.80133238  0.11330635     0.05900
H2240       H  0.81218434  0.82214248  0.09966962     0.07800
H2241       H  0.82525002  0.82842863  0.06288307     0.11300
H2242       H  0.76581531  0.79832387  0.03655125     0.11600
H2243       H  0.75428294  0.78884398  0.07388014     0.07800
C2244       C  0.75107811  0.80008214  0.11818828    -0.11300
C2245       C  0.74372719  0.79727852  0.13997362    -0.10600
C2246       C  0.75905105  0.79633954  0.15743621    -0.01500
C2247       C  0.78181592  0.79772315  0.15271283    -0.11700
C2248       C  0.78920691  0.79978126  0.13097083    -0.10100
H2249       H  0.73871551  0.80164735  0.10529390     0.07800
H2250       H  0.72605269  0.79626016  0.14322558     0.11500
H2251       H  0.79398253  0.79657740  0.16584887     0.11300
H2252       H  0.80695254  0.79989199  0.12814616     0.07800
C2253       C  0.79370511  0.77405295  0.93998535    -0.11300
C2254       C  0.79026335  0.78712920  0.92110806     0.05900
C2255       C  0.78974676  0.80991985  0.92332222    -0.10000
C2256       C  0.79332852  0.81958345  0.94373711    -0.11700
C2257       C  0.79801762  0.80678017  0.96253893    -0.01500
C2258       C  0.79768310  0.78382548  0.96058522    -0.10600
C2259       C  0.78734544  0.77772676  0.89881673     0.05900
H2260       H  0.78660668  0.82033489  0.90911237     0.07800
H2261       H  0.79275458  0.83724904  0.94472392     0.11300
H2262       H  0.80125450  0.77349919  0.97473826     0.11600
H2263       H  0.79402881  0.75640661  0.93864248     0.07800
C2264       C  0.80007175  0.78610133  0.88129109    -0.11300
C2265       C  0.79447591  0.78134169  0.85953040    -0.10600
C2266       C  0.77600952  0.76807117  0.85474893    -0.01500
C2267       C  0.76437880  0.75813432  0.87228880    -0.11700
C2268       C  0.77003361  0.76295082  0.89424264    -0.10100
H2269       H  0.81364326  0.79734634  0.88443120     0.07800
H2270       H  0.80390925  0.78903234  0.84636287     0.11500
H2271       H  0.74999312  0.74796006  0.86904989     0.11300
H2272       H  0.75994233  0.75639457  0.90752734     0.07800
C2273       C  0.84990265  0.90250287  0.98478925    -0.11300
C2274       C  0.86827656  0.90321115  0.99912253     0.05900
C2275       C  0.87199104  0.88575803  0.01380913    -0.10000
C2276       C  0.85756117  0.86791518  0.01426273    -0.11700
C2277       C  0.83926018  0.86706978  0.99988661    -0.01500
C2278       C  0.83559814  0.88440983  0.98500217    -0.10600
C2279       C  0.88393160  0.92182653  0.99863035     0.05900
H2280       H  0.88598733  0.88603729  0.02508359     0.07800
H2281       H  0.86075578  0.85464858  0.02578122     0.11300
H2282       H  0.82151304  0.88408717  0.97384405     0.11600
H2283       H  0.84684291  0.91577822  0.97325209     0.07800
C2284       C  0.90685691  0.91795220  0.99734802    -0.11300
C2285       C  0.92189015  0.93533211  0.99755234    -0.10600
C2286       C  0.91431517  0.95700853  0.99918827    -0.01500
C2287       C  0.89128277  0.96085397  0.00040822    -0.11700
C2288       C  0.87622019  0.94340413  0.00002512    -0.10100
H2289       H  0.91313384  0.90141664  0.99610570     0.07800
H2290       H  0.93947173  0.93171456  0.99653633     0.11500
H2291       H  0.88487336  0.97731743  0.00180519     0.11300
H2292       H  0.85858330  0.94670655  0.00125648     0.07800
loop_ 
_geom_bond_atom_site_label_1 
_geom_bond_atom_site_label_2 
_geom_bond_distance 
_geom_bond_site_symmetry_2 
_ccdc_geom_bond_type 
C1            C2   1.416       .  A
C1            C6   1.407       .  A
C1         C2237   1.499       .  S
C2            C3   1.414   1_554  A
C2            H7   1.082       .  S
C3            C4   1.408       .  A
C3         C2257   1.491       .  S
C4            C5   1.395   1_556  A
C4            H8   1.084       .  S
C5            C6   1.394       .  A
C5         C2277   1.477   1_554  S
C6            H9   1.082       .  S
C10          C11   1.411       .  A
C10          C15   1.410       .  A
C10        C2177   1.494       .  S
C11          C12   1.411   1_554  A
C11          H16   1.083       .  S
C12          C13   1.407       .  A
C12        C2206   1.492       .  S
C13          C14   1.403   1_556  A
C13          H17   1.083       .  S
C14          C15   1.404       .  A
C14        C2226   1.492       .  S
C15          H18   1.083       .  S
C19          C20   1.402       .  A
C19          C24   1.406   1_554  A
C19        C2126   1.482       .  S
C20          C21   1.400   1_554  A
C20          H25   1.084       .  S
C21          C22   1.403       .  A
C21        C2166   1.483       .  S
C22          C23   1.409       .  A
C22          H26   1.083       .  S
C23          C24   1.409       .  A
C23        C2137   1.488       .  S
C24          H27   1.083       .  S
C28          C29   1.403       .  A
C28          C33   1.402       .  A
C28        C2077   1.474       .  S
C29          C30   1.400       .  A
C29          H34   1.084       .  S
C30          C31   1.403       .  A
C30        C2097   1.483       .  S
C31          C32   1.407       .  A
C31          H35   1.084   1_545  S
C32          C33   1.404       .  A
C32        C2057   1.479   1_545  S
C33          H36   1.084       .  S
C37          C38   1.402       .  A
C37          C42   1.408       .  A
C37        C1997   1.480       .  S
C38          C39   1.405   1_655  A
C38          H43   1.084       .  S
C39          C40   1.408   1_455  A
C39        C2017   1.483       .  S
C40          C41   1.402       .  A
C40          H44   1.083   1_655  S
C41          C42   1.404       .  A
C41        C2046   1.490       .  S
C42          H45   1.083       .  S
C46          C47   1.401       .  A
C46          C51   1.404       .  A
C46        C1937   1.474       .  S
C47          C48   1.401   1_655  A
C47          H52   1.084       .  S
C48          C49   1.404       .  A
C48        C1966   1.475       .  S
C49          C50   1.403   1_455  A
C49          H53   1.084       .  S
C50          C51   1.404       .  A
C50        C1977   1.485       .  S
C51          H54   1.083       .  S
C55          C56   1.400       .  A
C55          C60   1.402       .  A
C55        C1897   1.475       .  S
C56          C57   1.402       .  A
C56          H61   1.084       .  S
C57          C58   1.406       .  A
C57        C1886   1.476   1_545  S
C58          C59   1.403       .  A
C58          H62   1.084   1_545  S
C59          C60   1.401       .  A
C59        C1926   1.481       .  S
C60          H63   1.084       .  S
C64          C65   1.411       .  A
C64          C69   1.409       .  A
C64        C1837   1.492       .  S
C65          C66   1.406       .  A
C65          H70   1.083       .  S
C66          C67   1.400       .  A
C66        C1857   1.490       .  S
C67          C68   1.403   1_655  A
C67          H71   1.083   1_655  S
C68          C69   1.406   1_455  A
C68        C1817   1.486       .  S
C69          H72   1.083       .  S
C73          C74   1.407       .  A
C73          C78   1.405       .  A
C73        C1777   1.484       .  S
C74          C75   1.402       .  A
C74          H79   1.084       .  S
C75          C76   1.403       .  A
C75        C1797   1.486       .  S
C76          C77   1.408       .  A
C76          H80   1.083   1_545  S
C77          C78   1.407       .  A
C77        C1757   1.487   1_545  S
C78          H81   1.083       .  S
C82          C83   1.401       .  A
C82          C87   1.402       .  A
C82        C1717   1.471       .  S
C83          C84   1.402       .  A
C83          H88   1.084       .  S
C84          C85   1.408       .  A
C84        C1737   1.477   1_655  S
C85          C86   1.403       .  A
C85          H89   1.084   1_655  S
C86          C87   1.400       .  A
C86        C1697   1.484       .  S
C87          H90   1.084       .  S
Zr91         O92   2.439       .  S
Zr91         O93   2.414       .  S
Zr91         O94   2.423       .  S
Zr91         O97   2.411       .  S
Zr91         O99   2.375       .  S
Zr91        O100   2.377       .  S
Zr91        O101   2.399       .  S
Zr91        O102   2.394       .  S
O92         H148   0.990       .  S
O92         H156   0.990       .  S
O93         C113   1.282       .  A
O94         C115   1.283       .  A
O95        Zr105   2.445       .  S
O95         C114   1.287       .  A
O96        Zr104   2.427       .  S
O96         C115   1.283       .  A
O97         C114   1.283       .  A
O98        Zr106   2.433       .  S
O98         C113   1.284       .  A
O99        Zr104   2.392       .  S
O99        Zr106   2.374       .  S
O100       Zr105   2.391       .  S
O100       Zr106   2.372       .  S
O100        H135   0.974       .  S
O101       Zr104   2.399       .  S
O101       Zr121   2.398       .  S
O101        H138   0.965       .  S
O102       Zr105   2.399       .  S
O102       Zr121   2.392       .  S
Zr103       O128   2.444       .  S
Zr103       O122   2.435       .  S
Zr103       O130   2.398       .  S
Zr103       O118   2.414       .  S
Zr103       O109   2.404       .  S
Zr103       O110   2.398       .  S
Zr103       O111   2.372       .  S
Zr103       O112   2.378       .  S
Zr104       O123   2.436       .  S
Zr104       O116   2.436       .  S
Zr104       O117   2.441       .  S
Zr104       O110   2.392       .  S
Zr104       O111   2.389       .  S
Zr105       O107   2.434       .  S
Zr105       O129   2.442       .  S
Zr105       O131   2.455       .  S
Zr105       O109   2.397       .  S
Zr105       O112   2.390       .  S
Zr106       O132   2.436       .  S
Zr106       O133   2.436       .  S
Zr106       O108   2.435       .  S
Zr106       O109   2.401       .  S
Zr106       O110   2.401       .  S
O107        H144   0.990       .  S
O108        H139   0.990       .  S
O108        H153   0.990       .  S
O110        H136   0.965       .  S
O111       Zr121   2.375       .  S
O112       Zr121   2.378       .  S
O112        H137   0.967       .  S
C113       C1637   1.482       .  S
C114       C1597   1.484       .  S
C115       C1626   1.478       .  S
O116        H152   0.990       .  S
O117        C119   1.286       .  A
O118        C119   1.283       .  A
C119       C1657   1.482       .  S
O120       Zr121   2.435       .  S
O120        H149   0.990       .  S
Zr121       O124   2.435       .  S
Zr121       O125   2.437       .  S
Zr121       O126   2.423       .  S
O122        C127   1.286       .  A
O123        H140   0.990       .  S
O123        H155   0.990       .  S
O124        H141   0.990       .  S
O125        H145   0.990       .  S
O125        H154   0.990       .  S
O126        C127   1.283       .  A
C127       C1677   1.484       .  S
O128        H147   0.990       .  S
O128        H151   0.990       .  S
O129        H143   0.990       .  S
O129        H150   0.989       .  S
O130        C134   1.280       .  A
O131        C134   1.288       .  A
O132        H142   0.990       .  S
O133        H146   0.990       .  S
C134       C1746   1.483       .  S
C157        C158   1.406       .  A
C157        C162   1.405       .  A
C157       C1686   1.483       .  S
C158        C159   1.405       .  A
C158        H163   1.083       .  S
C159        C160   1.407       .  A
C159       C1557   1.496       .  S
C160        C161   1.408       .  A
C160        H164   1.083   1_545  S
C161        C162   1.405       .  A
C161       C1586   1.483   1_545  S
C162        H165   1.084       .  S
Zr166       O167   2.441       .  S
Zr166       O168   2.421       .  S
Zr166       O169   2.427       .  S
Zr166       O172   2.406       .  S
Zr166       O174   2.371       .  S
Zr166       O175   2.379       .  S
Zr166       O176   2.397       .  S
Zr166       O177   2.399       .  S
O167        H223   0.991       .  S
O167        H231   0.990       .  S
O168        C188   1.282       .  A
O169        C190   1.284       .  A
O170       Zr180   2.443       .  S
O170        C189   1.286       .  A
O171       Zr179   2.440       .  S
O171        C190   1.286       .  A
O172        C189   1.282       .  A
O173       Zr181   2.451       .  S
O173        C188   1.287       .  A
O174       Zr179   2.398       .  S
O174       Zr181   2.378       .  S
O175       Zr180   2.392       .  S
O175       Zr181   2.372       .  S
O175        H210   0.966       .  S
O176       Zr179   2.402       .  S
O176       Zr196   2.391       .  S
O176        H213   0.964       .  S
O177       Zr180   2.394       .  S
O177       Zr196   2.396       .  S
Zr178       O203   2.441       .  S
Zr178       O197   2.425       .  S
Zr178       O205   2.426       .  S
Zr178       O193   2.424       .  S
Zr178       O184   2.405       .  S
Zr178       O185   2.404       .  S
Zr178       O186   2.374       .  S
Zr178       O187   2.380       .  S
Zr179       O198   2.436       .  S
Zr179       O191   2.437       .  S
Zr179       O192   2.452       .  S
Zr179       O185   2.397       .  S
Zr179       O186   2.391       .  S
Zr180       O182   2.435       .  S
Zr180       O204   2.438       .  S
Zr180       O206   2.436       .  S
Zr180       O184   2.400       .  S
Zr180       O187   2.391       .  S
Zr181       O207   2.436       .  S
Zr181       O208   2.436       .  S
Zr181       O183   2.436       .  S
Zr181       O184   2.407       .  S
Zr181       O185   2.401       .  S
O182        H219   0.990       .  S
O183        H214   0.991       .  S
O183        H228   0.990       .  S
O185        H211   0.967       .  S
O186       Zr196   2.375       .  S
O187       Zr196   2.379       .  S
O187        H212   0.964       .  S
C188       C1497   1.492       .  S
C189       C1517   1.476       .  S
C190       C1537   1.481       .  S
O191        H227   0.989       .  S
O192        C194   1.288       .  A
O193        C194   1.284       .  A
C194       C1577   1.485       .  S
O195       Zr196   2.437       .  S
O195        H224   0.990       .  S
Zr196       O199   2.434       .  S
Zr196       O200   2.439       .  S
Zr196       O201   2.423       .  S
O197        C202   1.284       .  A
O198        H215   0.990       .  S
O198        H230   0.990       .  S
O199        H216   0.990       .  S
O200        H220   0.991       .  S
O200        H229   0.990       .  S
O201        C202   1.282       .  A
C202       C2117   1.481       .  S
O203        H222   0.991       .  S
O203        H226   0.990       .  S
O204        H218   0.990       .  S
O204        H225   0.990       .  S
O205        C209   1.284       .  A
O206        C209   1.285       .  A
O207        H217   0.990       .  S
O208        H221   0.990       .  S
C209       C1826   1.481       .  S
Zr232       O233   2.441       .  S
Zr232       O234   2.430       .  S
Zr232       O235   2.397       .  S
Zr232       O238   2.392       .  S
Zr232       O240   2.371       .  S
Zr232       O241   2.373       .  S
Zr232       O242   2.398       .  S
Zr232       O243   2.393       .  S
O233        H289   0.990       .  S
O233        H297   0.990       .  S
O234        C254   1.284       .  A
O235        C256   1.279       .  A
O236       Zr246   2.469       .  S
O236        C255   1.291       .  A
O237       Zr245   2.444       .  S
O237        C256   1.286       .  A
O238        C255   1.279       .  A
O239       Zr247   2.440       .  S
O239        C254   1.285       .  A
O240       Zr245   2.399       .  S
O240       Zr247   2.372       .  S
O241       Zr246   2.399       .  S
O241       Zr247   2.378       .  S
O241        H276   0.969       .  S
O242       Zr245   2.401       .  S
O242       Zr262   2.398       .  S
O242        H279   0.966       .  S
O243       Zr246   2.390       .  S
O243       Zr262   2.394       .  S
Zr244       O269   2.443       .  S
Zr244       O263   2.442       .  S
Zr244       O271   2.396       .  S
Zr244       O259   2.410       .  S
Zr244       O250   2.401       .  S
Zr244       O251   2.402       .  S
Zr244       O252   2.370       .  S
Zr244       O253   2.375       .  S
Zr245       O264   2.434       .  S
Zr245       O257   2.434       .  S
Zr245       O258   2.440       .  S
Zr245       O251   2.404       .  S
Zr245       O252   2.399       .  S
Zr246       O248   2.434       .  S
Zr246       O270   2.435       .  S
Zr246       O272   2.452       .  S
Zr246       O250   2.403       .  S
Zr246       O253   2.401       .  S
Zr247       O273   2.435       .  S
Zr247       O274   2.437       .  S
Zr247       O249   2.439       .  S
Zr247       O250   2.405       .  S
Zr247       O251   2.399       .  S
O248        H285   0.990       .  S
O249        H280   0.990       .  S
O249        H294   0.990       .  S
O251        H277   0.962       .  S
O252       Zr262   2.378       .  S
O253       Zr262   2.379       .  S
O253        H278   0.967       .  S
C254       C1786   1.490       .  S
C255       C2186   1.490       .  S
C256       C1726   1.479       .  S
O257        H293   0.990       .  S
O258        C260   1.285       .  A
O259        C260   1.280       .  A
C260       C1437   1.478       .  S
O261       Zr262   2.435       .  S
O261        H290   0.990       .  S
Zr262       O265   2.436       .  S
Zr262       O266   2.440       .  S
Zr262       O267   2.428       .  S
O263        C268   1.286       .  A
O264        H281   0.990       .  S
O264        H296   0.990       .  S
O265        H282   0.990       .  S
O266        H286   0.990       .  S
O266        H295   0.990       .  S
O267        C268   1.282       .  A
C268       C1466   1.491       .  S
O269        H288   0.990       .  S
O269        H292   0.991       .  S
O270        H284   0.990       .  S
O270        H291   0.990       .  S
O271        C275   1.279       .  A
O272        C275   1.288       .  A
O273        H283   0.990       .  S
O274        H287   0.990       .  S
C275       C1486   1.484       .  S
Zr298       O299   2.441       .  S
Zr298       O300   2.443       .  S
Zr298       O301   2.416       .  S
Zr298       O304   2.402       .  S
Zr298       O306   2.369       .  S
Zr298       O307   2.376       .  S
Zr298       O308   2.400       .  S
Zr298       O309   2.402       .  S
O299        H355   0.990       .  S
O299        H363   0.990       .  S
O300        C320   1.286       .  A
O301        C322   1.282       .  A
O302       Zr312   2.470       .  S
O302        C321   1.292       .  A
O303       Zr311   2.445       .  S
O303        C322   1.286       .  A
O304        C321   1.281       .  A
O305       Zr313   2.427       .  S
O305        C320   1.282       .  A
O306       Zr311   2.399       .  S
O306       Zr313   2.376       .  S
O307       Zr312   2.400       .  S
O307       Zr313   2.379       .  S
O307        H342   0.966       .  S
O308       Zr311   2.402       .  S
O308       Zr328   2.401       .  S
O308        H345   0.967       .  S
O309       Zr312   2.398       .  S
O309       Zr328   2.401       .  S
Zr310       O335   2.439       .  S
Zr310       O329   2.421       .  S
Zr310       O337   2.411       .  S
Zr310       O325   2.409       .  S
Zr310       O316   2.395       .  S
Zr310       O317   2.394       .  S
Zr310       O318   2.371       .  S
Zr310       O319   2.380       .  S
Zr311       O330   2.437       .  S
Zr311       O323   2.435       .  S
Zr311       O324   2.450       .  S
Zr311       O317   2.399       .  S
Zr311       O318   2.388       .  S
Zr312       O314   2.434       .  S
Zr312       O336   2.435       .  S
Zr312       O338   2.469       .  S
Zr312       O316   2.401       .  S
Zr312       O319   2.393       .  S
Zr313       O339   2.437       .  S
Zr313       O340   2.435       .  S
Zr313       O315   2.439       .  S
Zr313       O316   2.403       .  S
Zr313       O317   2.397       .  S
O314        H351   0.990       .  S
O315        H346   0.990       .  S
O315        H360   0.990       .  S
O317        H343   0.968       .  S
O318       Zr328   2.368       .  S
O319       Zr328   2.373       .  S
O319        H344   0.968       .  S
C320       C1386   1.491       .  S
C321       C1397   1.490       .  S
C322       C1417   1.481       .  S
O323        H359   0.990       .  S
O324        C326   1.287       .  A
O325        C326   1.283       .  A
C326       C1846   1.480       .  S
O327       Zr328   2.435       .  S
O327        H356   0.990       .  S
Zr328       O331   2.437       .  S
Zr328       O332   2.437       .  S
Zr328       O333   2.442       .  S
O329        C334   1.283       .  A
O330        H347   0.990       .  S
O330        H362   0.990       .  S
O331        H348   0.990       .  S
O332        H352   0.990       .  S
O332        H361   0.990       .  S
O333        C334   1.284       .  A
C334       C2246   1.478       .  S
O335        H354   0.990       .  S
O335        H358   0.990       .  S
O336        H350   0.990       .  S
O336        H357   0.990       .  S
O337        C341   1.283       .  A
O338        C341   1.292       .  A
O339        H349   0.990       .  S
O340        H353   0.990       .  S
C341       C1766   1.488       .  S
C364        C365   1.404       .  A
C364        C369   1.406       .  A
C364       C1666   1.484       .  S
C365        C366   1.404   1_554  A
C365        H370   1.084       .  S
C366        C367   1.409       .  A
C366       C1366   1.486       .  S
C367        C368   1.406   1_556  A
C367        H371   1.083       .  S
C368        C369   1.407       .  A
C368       C1346   1.493       .  S
C369        H372   1.083       .  S
Zr373       O374   2.443       .  S
Zr373       O375   2.420       .  S
Zr373       O376   2.421       .  S
Zr373       O379   2.418       .  S
Zr373       O381   2.378       .  S
Zr373       O382   2.374       .  S
Zr373       O383   2.401       .  S
Zr373       O384   2.395       .  S
O374        H430   0.991       .  S
O374        H438   0.990       .  S
O375        C395   1.282       .  A
O376        C397   1.282       .  A
O377       Zr387   2.444       .  S
O377        C396   1.286       .  A
O378       Zr386   2.434       .  S
O378        C397   1.284       .  A
O379        C396   1.283       .  A
O380       Zr388   2.418       .  S
O380        C395   1.281       .  A
O381       Zr386   2.403       .  S
O381       Zr388   2.382       .  S
O382       Zr387   2.391       .  S
O382       Zr388   2.381       .  S
O382        H417   0.965       .  S
O383       Zr386   2.405       .  S
O383       Zr403   2.390       .  S
O383        H420   0.967       .  S
O384       Zr387   2.396       .  S
O384       Zr403   2.395       .  S
Zr385       O410   2.441       .  S
Zr385       O404   2.404       .  S
Zr385       O412   2.407       .  S
Zr385       O400   2.424       .  S
Zr385       O391   2.392       .  S
Zr385       O392   2.393       .  S
Zr385       O393   2.374       .  S
Zr385       O394   2.379       .  S
Zr386       O405   2.438       .  S
Zr386       O398   2.436       .  S
Zr386       O399   2.440       .  S
Zr386       O392   2.401       .  S
Zr386       O393   2.397       .  S
Zr387       O389   2.435       .  S
Zr387       O411   2.438       .  S
Zr387       O413   2.445       .  S
Zr387       O391   2.395       .  S
Zr387       O394   2.390       .  S
Zr388       O414   2.435       .  S
Zr388       O415   2.434       .  S
Zr388       O390   2.439       .  S
Zr388       O391   2.390       .  S
Zr388       O392   2.392       .  S
O389        H426   0.990       .  S
O390        H421   0.990       .  S
O390        H435   0.990       .  S
O392        H418   0.966       .  S
O393       Zr403   2.381       .  S
O394       Zr403   2.382       .  S
O394        H419   0.966       .  S
C395       C1906   1.478       .  S
C396       C1357   1.486       .  S
C397       C2026   1.476       .  S
O398        H434   0.990       .  S
O399        C401   1.286       .  A
O400        C401   1.283       .  A
C401       C1286   1.485       .  S
O402       Zr403   2.436       .  S
O402        H431   0.990       .  S
Zr403       O406   2.436       .  S
Zr403       O407   2.439       .  S
Zr403       O408   2.418       .  S
O404        C409   1.279       .  A
O405        H422   0.990       .  S
O405        H437   0.990       .  S
O406        H423   0.990       .  S
O407        H427   0.990       .  S
O407        H436   0.990       .  S
O408        C409   1.280       .  A
C409       C1297   1.472       .  S
O410        H429   0.990       .  S
O410        H433   0.991       .  S
O411        H425   0.990       .  S
O411        H432   0.990       .  S
O412        C416   1.281       .  A
O413        C416   1.286       .  A
O414        H424   0.989       .  S
O415        H428   0.990       .  S
C416       C1317   1.481       .  S
Zr439       O440   2.441       .  S
Zr439       O441   2.407       .  S
Zr439       O442   2.418       .  S
Zr439       O445   2.401       .  S
Zr439       O447   2.372       .  S
Zr439       O448   2.379       .  S
Zr439       O449   2.393       .  S
Zr439       O450   2.395       .  S
O440        H496   0.991       .  S
O440        H504   0.990       .  S
O441        C461   1.281       .  A
O442        C463   1.282       .  A
O443       Zr453   2.441       .  S
O443        C462   1.286       .  A
O444       Zr452   2.451       .  S
O444        C463   1.288       .  A
O445        C462   1.281       .  A
O446       Zr454   2.431       .  S
O446        C461   1.284       .  A
O447       Zr452   2.388       .  S
O447       Zr454   2.377       .  S
O448       Zr453   2.390       .  S
O448       Zr454   2.375       .  S
O448        H483   0.967       .  S
O449       Zr452   2.398       .  S
O449       Zr469   2.394       .  S
O449        H486   0.964       .  S
O450       Zr453   2.391       .  S
O450       Zr469   2.392       .  S
Zr451       O476   2.440       .  S
Zr451       O470   2.402       .  S
Zr451       O478   2.423       .  S
Zr451       O466   2.420       .  S
Zr451       O457   2.395       .  S
Zr451       O458   2.397       .  S
Zr451       O459   2.374       .  S
Zr451       O460   2.379       .  S
Zr452       O471   2.436       .  S
Zr452       O464   2.436       .  S
Zr452       O465   2.446       .  S
Zr452       O458   2.403       .  S
Zr452       O459   2.392       .  S
Zr453       O455   2.435       .  S
Zr453       O477   2.435       .  S
Zr453       O479   2.446       .  S
Zr453       O457   2.399       .  S
Zr453       O460   2.386       .  S
Zr454       O480   2.434       .  S
Zr454       O481   2.437       .  S
Zr454       O456   2.436       .  S
Zr454       O457   2.398       .  S
Zr454       O458   2.397       .  S
O455        H492   0.990       .  S
O456        H487   0.990       .  S
O456        H501   0.990       .  S
O458        H484   0.964       .  S
O459       Zr469   2.372       .  S
O460       Zr469   2.374       .  S
O460        H485   0.974       .  S
C461       C1877   1.478       .  S
C462       C1957   1.473       .  S
C463       C2146   1.483       .  S
O464        H500   0.990       .  S
O465        C467   1.287       .  A
O466        C467   1.283       .  A
C467       C1246   1.486       .  S
O468       Zr469   2.434       .  S
O468        H497   0.991       .  S
Zr469       O472   2.435       .  S
Zr469       O473   2.439       .  S
Zr469       O474   2.424       .  S
O470        C475   1.279       .  A
O471        H488   0.990       .  S
O471        H503   0.990       .  S
O472        H489   0.990       .  S
O473        H493   0.990       .  S
O473        H502   0.989       .  S
O474        C475   1.282       .  A
C475       C1257   1.472       .  S
O476        H495   0.990       .  S
O476        H499   0.991       .  S
O477        H491   0.989       .  S
O477        H498   0.990       .  S
O478        C482   1.284       .  A
O479        C482   1.287       .  A
O480        H490   0.990       .  S
O481        H494   0.990       .  S
C482       C1226   1.487       .  S
Zr505       O506   2.440       .  S
Zr505       O507   2.426       .  S
Zr505       O508   2.424       .  S
Zr505       O511   2.420       .  S
Zr505       O513   2.377       .  S
Zr505       O514   2.380       .  S
Zr505       O515   2.400       .  S
Zr505       O516   2.398       .  S
O506        H562   0.990       .  S
O506        H570   0.991       .  S
O507        C527   1.284       .  A
O508        C529   1.283       .  A
O509       Zr519   2.431       .  S
O509        C528   1.285       .  A
O510       Zr518   2.458       .  S
O510        C529   1.289       .  A
O511        C528   1.285       .  A
O512       Zr520   2.429       .  S
O512        C527   1.283       .  A
O513       Zr518   2.389       .  S
O513       Zr520   2.374       .  S
O514       Zr519   2.387       .  S
O514       Zr520   2.380       .  S
O514        H549   0.967       .  S
O515       Zr518   2.398       .  S
O515       Zr535   2.394       .  S
O515        H552   0.965       .  S
O516       Zr519   2.396       .  S
O516       Zr535   2.397       .  S
Zr517       O542   2.443       .  S
Zr517       O536   2.430       .  S
Zr517       O544   2.411       .  S
Zr517       O532   2.392       .  S
Zr517       O523   2.395       .  S
Zr517       O524   2.404       .  S
Zr517       O525   2.375       .  S
Zr517       O526   2.372       .  S
Zr518       O537   2.438       .  S
Zr518       O530   2.435       .  S
Zr518       O531   2.451       .  S
Zr518       O524   2.399       .  S
Zr518       O525   2.397       .  S
Zr519       O521   2.434       .  S
Zr519       O543   2.434       .  S
Zr519       O545   2.441       .  S
Zr519       O523   2.392       .  S
Zr519       O526   2.390       .  S
Zr520       O546   2.436       .  S
Zr520       O547   2.436       .  S
Zr520       O522   2.436       .  S
Zr520       O523   2.398       .  S
Zr520       O524   2.395       .  S
O521        H558   0.990       .  S
O522        H553   0.990       .  S
O522        H567   0.990       .  S
O524        H550   0.968       .  S
O525       Zr535   2.368       .  S
O526       Zr535   2.381       .  S
O526        H551   0.965       .  S
C527       C2086   1.483       .  S
C528       C2006   1.480       .  S
C529       C2197   1.492       .  S
O530        H566   0.990       .  S
O531        C533   1.288       .  A
O532        C533   1.279       .  A
C533       C1177   1.476       .  S
O534       Zr535   2.436       .  S
O534        H563   0.990       .  S
Zr535       O538   2.437       .  S
Zr535       O539   2.439       .  S
Zr535       O540   2.423       .  S
O536        C541   1.284       .  A
O537        H554   0.990       .  S
O537        H569   0.990       .  S
O538        H555   0.990       .  S
O539        H559   0.990       .  S
O539        H568   0.990       .  S
O540        C541   1.282       .  A
C541       C1197   1.483       .  S
O542        H561   0.991       .  S
O542        H565   0.990       .  S
O543        H557   0.990       .  S
O543        H564   0.990       .  S
O544        C548   1.281       .  A
O545        C548   1.286       .  A
O546        H556   0.990       .  S
O547        H560   0.990       .  S
C548       C1157   1.481       .  S
Zr571       O572   2.440       .  S
Zr571       O573   2.427       .  S
Zr571       O574   2.416       .  S
Zr571       O577   2.399       .  S
Zr571       O579   2.369       .  S
Zr571       O580   2.374       .  S
Zr571       O581   2.401       .  S
Zr571       O582   2.399       .  S
O572        H628   0.991       .  S
O572        H636   0.990       .  S
O573        C593   1.284       .  A
O574        C595   1.282       .  A
O575       Zr585   2.438       .  S
O575        C594   1.286       .  A
O576       Zr584   2.449       .  S
O576        C595   1.287       .  A
O577        C594   1.280       .  A
O578       Zr586   2.421       .  S
O578        C593   1.282       .  A
O579       Zr584   2.394       .  S
O579       Zr586   2.379       .  S
O580       Zr585   2.386       .  S
O580       Zr586   2.366       .  S
O580        H615   0.966       .  S
O581       Zr584   2.400       .  S
O581       Zr601   2.400       .  S
O581        H618   0.966       .  S
O582       Zr585   2.393       .  S
O582       Zr601   2.396       .  S
Zr583       O608   2.442       .  S
Zr583       O602   2.438       .  S
Zr583       O610   2.420       .  S
Zr583       O598   2.413       .  S
Zr583       O589   2.398       .  S
Zr583       O590   2.404       .  S
Zr583       O591   2.375       .  S
Zr583       O592   2.383       .  S
Zr584       O603   2.435       .  S
Zr584       O596   2.434       .  S
Zr584       O597   2.444       .  S
Zr584       O590   2.400       .  S
Zr584       O591   2.397       .  S
Zr585       O587   2.436       .  S
Zr585       O609   2.437       .  S
Zr585       O611   2.439       .  S
Zr585       O589   2.398       .  S
Zr585       O592   2.393       .  S
Zr586       O612   2.436       .  S
Zr586       O613   2.436       .  S
Zr586       O588   2.437       .  S
Zr586       O589   2.390       .  S
Zr586       O590   2.392       .  S
O587        H624   0.990       .  S
O588        H619   0.990       .  S
O588        H633   0.990       .  S
O590        H616   0.965       .  S
O591       Zr601   2.378       .  S
O592       Zr601   2.381       .  S
O592        H617   0.966       .  S
C593       C1946   1.480       .  S
C594       C2066   1.474       .  S
C595       C2266   1.480       .  S
O596        H632   0.990       .  S
O597        C599   1.285       .  A
O598        C599   1.281       .  A
C599       C1126   1.470       .  S
O600       Zr601   2.436       .  S
O600        H629   0.990       .  S
Zr601       O604   2.434       .  S
Zr601       O605   2.438       .  S
Zr601       O606   2.424       .  S
O602        C607   1.285       .  A
O603        H620   0.990       .  S
O603        H635   0.990       .  S
O604        H621   0.990       .  S
O605        H625   0.990       .  S
O605        H634   0.990       .  S
O606        C607   1.282       .  A
C607       C1137   1.486       .  S
O608        H627   0.990       .  S
O608        H631   0.991       .  S
O609        H623   0.990       .  S
O609        H630   0.990       .  S
O610        C614   1.281       .  A
O611        C614   1.284       .  A
O612        H622   0.990       .  S
O613        H626   0.991       .  S
C614       C1097   1.469       .  S
C637        C638   1.408       .  A
C637        C642   1.406       .  A
C637       C1146   1.488       .  S
C638        C639   1.408       .  A
C638        H643   1.083       .  S
C639        C640   1.408       .  A
C639       C1237   1.489       .  S
C640        C641   1.401       .  A
C640        H644   1.083       .  S
C641        C642   1.402       .  A
C641       C1077   1.484       .  S
C642        H645   1.083       .  S
C646        C647   1.404       .  A
C646        C651   1.396       .  A
C646       C1306   1.466       .  S
C647        C648   1.400       .  A
C647        H652   1.084       .  S
C648        C649   1.402       .  A
C648       C1057   1.480       .  S
C649        C650   1.401       .  A
C649        H653   1.084       .  S
C650        C651   1.396       .  A
C650       C1266   1.462       .  S
C651        H654   1.084       .  S
C655        C656   1.406       .  A
C655        C660   1.403       .  A
C655       C1186   1.477       .  S
C656        C657   1.401       .  A
C656        H661   1.084       .  S
C657        C658   1.408       .  A
C657       C1037   1.493       .  S
C658        C659   1.412       .  A
C658        H662   1.082       .  S
C659        C660   1.406       .  A
C659       C1326   1.494       .  S
C660        H663   1.083       .  S
C664        C665   1.404       .  A
C664        C669   1.400       .  A
C664       C1206   1.477       .  S
C665        C666   1.408       .  A
C665        H670   1.083       .  S
C666        C667   1.411       .  A
C666       C1117   1.492       .  S
C667        C668   1.404       .  A
C667        H671   1.082       .  S
C668        C669   1.399       .  A
C668       C1017   1.485       .  S
C669        H672   1.084       .  S
C673        C674   1.403       .  A
C673        C678   1.404       .  A
C673       C1477   1.479       .  S
C674        C675   1.406       .  A
C674        H679   1.084       .  S
C675        C676   1.408       .  A
C675       C1617   1.482       .  S
C676        C677   1.402       .  A
C676        H680   1.083       .  S
C677        C678   1.403       .  A
C677        C997   1.487       .  S
C678        H681   1.084       .  S
C682        C683   1.410       .  A
C682        C687   1.410       .  A
C682       C1457   1.492       .  S
C683        C684   1.407       .  A
C683        H688   1.083       .  S
C684        C685   1.403       .  A
C684       C1426   1.482       .  S
C685        C686   1.400       .  A
C685        H689   1.084       .  S
C686        C687   1.404       .  A
C686        C977   1.485       .  S
C687        H690   1.083       .  S
C691        C692   1.409       .  A
C691        C696   1.409       .  A
C691       C1406   1.492       .  S
C692        C693   1.409       .  A
C692        H697   1.083       .  S
C693        C694   1.404       .  A
C693       C1546   1.485       .  S
C694        C695   1.402       .  A
C694        H698   1.084       .  S
C695        C696   1.403       .  A
C695        C957   1.487       .  S
C696        H699   1.083       .  S
C700        C701   1.398       .  A
C700        C705   1.406       .  A
C700       C1646   1.477       .  S
C701        C702   1.397       .  A
C701        H706   1.084       .  S
C702        C703   1.400       .  A
C702        C937   1.481       .  S
C703        C704   1.408       .  A
C703        H707   1.083       .  S
C704        C705   1.411       .  A
C704       C1526   1.487       .  S
C705        H708   1.083       .  S
C709        C710   1.403       .  A
C709        C714   1.405       .  A
C709       C1377   1.488       .  S
C710        C711   1.403       .  A
C710        H715   1.083       .  S
C711        C712   1.406       .  A
C711        C917   1.490       .  S
C712        C713   1.410       .  A
C712        H716   1.083       .  S
C713        C714   1.410       .  A
C713       C1106   1.487       .  S
C714        H717   1.083       .  S
C718        C719   1.410       .  A
C718        C723   1.405       .  A
C718       C1446   1.486       .  S
C719        C720   1.406       .  A
C719        H724   1.082       .  S
C720        C721   1.406       .  A
C720        C897   1.499       .  S
C721        C722   1.409       .  A
C721        H725   1.083       .  S
C722        C723   1.404       .  A
C722       C1166   1.484       .  S
C723        H726   1.084       .  S
C727        C728   1.409       .  A
C727        C732   1.406       .  A
C727       C1506   1.487       .  S
C728        C729   1.411       .  A
C728        H733   1.083       .  S
C729        C730   1.408       .  A
C729       C1217   1.493       .  S
C730        C731   1.402       .  A
C730        H734   1.083       .  S
C731        C732   1.403       .  A
C731        C886   1.488       .  S
C732        H735   1.084       .  S
C736        C737   1.411       .  A
C736        C741   1.408       .  A
C736       C1606   1.487       .  S
C737        C738   1.404       .  A
C737        H742   1.083       .  S
C738        C739   1.403       .  A
C738        C857   1.493       .  S
C739        C740   1.404       .  A
C739        H743   1.083       .  S
C740        C741   1.406       .  A
C740       C1277   1.485       .  S
C741        H744   1.083       .  S
O745       Zr781   2.439   1_565  S
O745        C756   1.293   1_554  A
O746       Zr780   2.432       .  S
O746        C757   1.292   1_545  A
O747       Zr753   2.431   1_556  S
O747        C758   1.292       .  A
O748       Zr753   2.426       .  S
O748        C759   1.291       .  A
O749       Zr783   2.458   1_565  S
O749        C759   1.296       .  A
O750       Zr782   2.443       .  S
O750        C758   1.294   1_545  A
O751       Zr753   2.436   1_455  S
O751        C757   1.292       .  A
O752       Zr753   2.429   1_556  S
O752        C756   1.291       .  A
Zr753       O754   2.337   1_665  S
Zr753       O755   2.337   1_564  S
Zr753       O763   2.337   1_565  S
Zr753       O761   2.332   1_664  S
O754       Zr780   2.332       .  S
O754       Zr783   2.337   1_455  S
O755       Zr781   2.334   1_556  S
O755       Zr782   2.339       .  S
C756       C2286   1.482       .  S
C757       C2157   1.482       .  S
C758       C1986   1.483       .  S
C759       C1866   1.487       .  S
H760        O761   0.965       .  S
O761       Zr780   2.327   1_556  S
O761       Zr782   2.336   1_455  S
H762        O763   0.965   1_565  S
O763       Zr781   2.334       .  S
O763       Zr783   2.338       .  S
O764       Zr780   2.410       .  S
O764        C787   1.289       .  A
O765       Zr781   2.421       .  S
O765        C788   1.290       .  A
O766       Zr782   2.432   1_455  S
O766        C789   1.292       .  A
O767       Zr783   2.446   1_455  S
O767        C790   1.294       .  A
O768       Zr783   2.431       .  S
O768        C791   1.291       .  A
O769       Zr782   2.430       .  S
O769        C792   1.291       .  A
O770       Zr784   2.453   1_556  S
O770        C793   1.295       .  A
O771       Zr784   2.445       .  S
O771        C794   1.294       .  A
O772       Zr782   2.444       .  S
O772        C793   1.295       .  A
O773       Zr783   2.435       .  S
O773        C794   1.293       .  A
O774       Zr780   2.432   1_556  S
O774        C789   1.292       .  A
O775       Zr781   2.448   1_556  S
O775        C792   1.295       .  A
O776       Zr781   2.449       .  S
O776        C791   1.295       .  A
O777       Zr780   2.432       .  S
O777        C790   1.292       .  A
O778       Zr784   2.472   1_455  S
O778        C787   1.298       .  A
O779       Zr784   2.462       .  S
O779        C788   1.297       .  A
Zr780       O786   2.340   1_554  S
Zr780       O798   2.337       .  S
Zr781       O785   2.345       .  S
Zr781       O796   2.345   1_554  S
Zr782       O786   2.338   1_655  S
Zr782       O796   2.338       .  S
Zr783       O785   2.347       .  S
Zr783       O798   2.344   1_655  S
Zr784       O785   2.353       .  S
Zr784       O786   2.345   1_654  S
Zr784       O798   2.352   1_655  S
Zr784       O796   2.353   1_554  S
C787       C1337   1.490       .  S
C788       C2217   1.488       .  S
C789       C1917   1.480       .  S
C790       C1566   1.486       .  S
C791       C1806   1.486       .  S
C792       C2106   1.486       .  S
C793       C2037   1.491       .  S
C794       C1706   1.485       .  S
H795        O796   0.966       .  S
H797        O798   0.966       .  S
O799       Zr835   2.440       .  S
O799        C810   1.293       .  A
O800       Zr834   2.460       .  S
O800        C811   1.296       .  A
O801       Zr807   2.424       .  S
O801        C812   1.290       .  A
O802       Zr807   2.421       .  S
O802        C813   1.290       .  A
O803       Zr837   2.436       .  S
O803        C813   1.292       .  A
O804       Zr836   2.446       .  S
O804        C812   1.294       .  A
O805       Zr807   2.428       .  S
O805        C811   1.292       .  A
O806       Zr807   2.428       .  S
O806        C810   1.291       .  A
Zr807       O808   2.332       .  S
Zr807       O809   2.330       .  S
Zr807       O817   2.333       .  S
Zr807       O815   2.335       .  S
O808       Zr834   2.343       .  S
O808       Zr837   2.340       .  S
O809       Zr835   2.332       .  S
O809       Zr836   2.329       .  S
C810       C1086   1.482       .  S
C811       C1046   1.492       .  S
C812       C1066   1.484       .  S
C813       C1026   1.478       .  S
H814        O815   0.965       .  S
O815       Zr834   2.344       .  S
O815       Zr836   2.340       .  S
H816        O817   0.965       .  S
O817       Zr835   2.338       .  S
O817       Zr837   2.344       .  S
O818       Zr834   2.440       .  S
O818        C841   1.293       .  A
O819       Zr835   2.423       .  S
O819        C842   1.290       .  A
O820       Zr836   2.420       .  S
O820        C843   1.290       .  A
O821       Zr837   2.456       .  S
O821        C844   1.296       .  A
O822       Zr837   2.456       .  S
O822        C845   1.296       .  A
O823       Zr836   2.436       .  S
O823        C846   1.292       .  A
O824       Zr838   2.436       .  S
O824        C847   1.292       .  A
O825       Zr838   2.432       .  S
O825        C848   1.291       .  A
O826       Zr836   2.423       .  S
O826        C847   1.290       .  A
O827       Zr837   2.435       .  S
O827        C848   1.293       .  A
O828       Zr834   2.466       .  S
O828        C843   1.297       .  A
O829       Zr835   2.451       .  S
O829        C846   1.295       .  A
O830       Zr835   2.435       .  S
O830        C845   1.293       .  A
O831       Zr834   2.457       .  S
O831        C844   1.296       .  A
O832       Zr838   2.444       .  S
O832        C841   1.295       .  A
O833       Zr838   2.460       .  S
O833        C842   1.296       .  A
Zr834       O840   2.351       .  S
Zr834       O852   2.354       .  S
Zr835       O839   2.346       .  S
Zr835       O850   2.335       .  S
Zr836       O840   2.343       .  S
Zr836       O850   2.339       .  S
Zr837       O839   2.343       .  S
Zr837       O852   2.342       .  S
Zr838       O839   2.336       .  S
Zr838       O840   2.346       .  S
Zr838       O852   2.349       .  S
Zr838       O850   2.339       .  S
C841       C1006   1.486       .  S
C842        C966   1.486       .  S
C843        C866   1.489       .  S
C844        C906   1.498       .  S
C845        C926   1.487       .  S
C846        C877   1.489       .  S
C847        C946   1.476       .  S
C848        C986   1.481       .  S
H849        O850   0.966       .  S
H851        O852   0.966       .  S
C853        C854   1.404       .  A
C853        C858   1.393       .  A
C853        H863   1.083       .  S
C854        C855   1.407       .  A
C854        C859   1.488       .  S
C855        C856   1.405       .  A
C855        H860   1.083       .  S
C856        C857   1.409       .  A
C856        H861   1.083       .  S
C857        C858   1.406       .  A
C858        H862   1.082       .  S
C859        C864   1.403       .  A
C859        C868   1.407       .  A
C864        C865   1.393       .  A
C864        H869   1.083       .  S
C865        C866   1.408       .  A
C865        H870   1.083       .  S
C866        C867   1.408       .  A
C867        C868   1.405       .  A
C867        H871   1.083       .  S
C868        H872   1.083       .  S
C873        C874   1.403       .  A
C873        C878   1.396       .  A
C873        H883   1.083       .  S
C874        C875   1.406       .  A
C874        C879   1.485       .  S
C875        C876   1.402       .  A
C875        H880   1.083       .  S
C876        C877   1.408       .  A
C876        H881   1.083       .  S
C877        C878   1.408       .  A
C878        H882   1.083       .  S
C879        C884   1.404       .  A
C879        C888   1.406       .  A
C884        C885   1.399       .  A
C884        H889   1.083       .  S
C885        C886   1.407       .  A
C885        H890   1.083       .  S
C886        C887   1.406       .  A
C887        C888   1.399       .  A
C887        H891   1.083       .  S
C888        H892   1.083       .  S
C893        C894   1.406       .  A
C893        C898   1.404       .  A
C893        H903   1.083       .  S
C894        C895   1.405       .  A
C894        C899   1.492       .  S
C895        C896   1.401       .  A
C895        H900   1.083       .  S
C896        C897   1.408       .  A
C896        H901   1.082       .  S
C897        C898   1.410       .  A
C898        H902   1.082       .  S
C899        C904   1.406       .  A
C899        C908   1.405       .  A
C904        C905   1.406       .  A
C904        H909   1.083       .  S
C905        C906   1.411       .  A
C905        H910   1.083       .  S
C906        C907   1.409       .  A
C907        C908   1.402       .  A
C907        H911   1.083       .  S
C908        H912   1.083       .  S
C913        C914   1.407       .  A
C913        C918   1.396       .  A
C913        H923   1.083       .  S
C914        C915   1.408       .  A
C914        C919   1.492       .  S
C915        C916   1.403       .  A
C915        H920   1.083       .  S
C916        C917   1.407       .  A
C916        H921   1.083       .  S
C917        C918   1.406       .  A
C918        H922   1.083       .  S
C919        C924   1.405       .  A
C919        C928   1.409       .  A
C924        C925   1.395       .  A
C924        H929   1.083       .  S
C925        C926   1.406       .  A
C925        H930   1.083       .  S
C926        C927   1.407       .  A
C927        C928   1.404       .  A
C927        H931   1.083       .  S
C928        H932   1.083       .  S
C933        C934   1.405       .  A
C933        C938   1.396       .  A
C933        H943   1.083       .  S
C934        C935   1.403       .  A
C934        C939   1.479       .  S
C935        C936   1.391       .  A
C935        H940   1.083       .  S
C936        C937   1.405       .  A
C936        H941   1.083       .  S
C937        C938   1.405       .  A
C938        H942   1.083       .  S
C939        C944   1.405       .  A
C939        C948   1.404       .  A
C944        C945   1.395       .  A
C944        H949   1.083       .  S
C945        C946   1.405       .  A
C945        H950   1.083       .  S
C946        C947   1.405       .  A
C947        C948   1.392       .  A
C947        H951   1.083       .  S
C948        H952   1.083       .  S
C953        C954   1.408       .  A
C953        C958   1.396       .  A
C953        H963   1.082       .  S
C954        C955   1.408       .  A
C954        C959   1.493       .  S
C955        C956   1.400       .  A
C955        H960   1.082       .  S
C956        C957   1.407       .  A
C956        H961   1.083       .  S
C957        C958   1.404       .  A
C958        H962   1.083       .  S
C959        C964   1.407       .  A
C959        C968   1.408       .  A
C964        C965   1.395       .  A
C964        H969   1.082       .  S
C965        C966   1.407       .  A
C965        H970   1.083       .  S
C966        C967   1.406       .  A
C967        C968   1.401       .  A
C967        H971   1.083       .  S
C968        H972   1.082       .  S
C973        C974   1.407       .  A
C973        C978   1.399       .  A
C973        H983   1.083       .  S
C974        C975   1.406       .  A
C974        C979   1.487       .  S
C975        C976   1.395       .  A
C975        H980   1.083       .  S
C976        C977   1.405       .  A
C976        H981   1.083       .  S
C977        C978   1.405       .  A
C978        H982   1.083       .  S
C979        C984   1.406       .  A
C979        C988   1.406       .  A
C984        C985   1.399       .  A
C984        H989   1.083       .  S
C985        C986   1.407       .  A
C985        H990   1.083       .  S
C986        C987   1.405       .  A
C987        C988   1.394       .  A
C987        H991   1.083       .  S
C988        H992   1.082       .  S
C993        C994   1.405       .  A
C993        C998   1.402       .  A
C993       H1003   1.083       .  S
C994        C995   1.402       .  A
C994        C999   1.479       .  S
C995        C996   1.395       .  A
C995       H1000   1.083       .  S
C996        C997   1.405       .  A
C996       H1001   1.083       .  S
C997        C998   1.408       .  A
C998       H1002   1.083       .  S
C999       C1004   1.402       .  A
C999       C1008   1.404       .  A
C1004      C1005   1.395       .  A
C1004      H1009   1.083       .  S
C1005      C1006   1.406       .  A
C1005      H1010   1.083       .  S
C1006      C1007   1.410       .  A
C1007      C1008   1.401       .  A
C1007      H1011   1.083       .  S
C1008      H1012   1.083       .  S
C1013      C1014   1.407       .  A
C1013      C1018   1.397       .  A
C1013      H1023   1.083       .  S
C1014      C1015   1.404       .  A
C1014      C1019   1.483       .  S
C1015      C1016   1.395       .  A
C1015      H1020   1.083       .  S
C1016      C1017   1.407       .  A
C1016      H1021   1.083       .  S
C1017      C1018   1.404       .  A
C1018      H1022   1.083       .  S
C1019      C1024   1.403       .  A
C1019      C1028   1.407       .  A
C1024      C1025   1.392       .  A
C1024      H1029   1.083       .  S
C1025      C1026   1.406       .  A
C1025      H1030   1.083       .  S
C1026      C1027   1.405       .  A
C1027      C1028   1.397       .  A
C1027      H1031   1.083       .  S
C1028      H1032   1.083       .  S
C1033      C1034   1.406       .  A
C1033      C1038   1.394       .  A
C1033      H1043   1.083       .  S
C1034      C1035   1.408       .  A
C1034      C1039   1.493       .  S
C1035      C1036   1.408       .  A
C1035      H1040   1.083       .  S
C1036      C1037   1.411       .  A
C1036      H1041   1.083       .  S
C1037      C1038   1.403       .  A
C1038      H1042   1.083       .  S
C1039      C1044   1.409       .  A
C1039      C1048   1.404       .  A
C1044      C1045   1.409       .  A
C1044      H1049   1.083       .  S
C1045      C1046   1.410       .  A
C1045      H1050   1.083       .  S
C1046      C1047   1.407       .  A
C1047      C1048   1.392       .  A
C1047      H1051   1.083       .  S
C1048      H1052   1.083       .  S
C1053      C1054   1.404       .  A
C1053      C1058   1.395       .  A
C1053      H1063   1.083       .  S
C1054      C1055   1.406       .  A
C1054      C1059   1.482       .  S
C1055      C1056   1.397       .  A
C1055      H1060   1.083       .  S
C1056      C1057   1.405       .  A
C1056      H1061   1.083       .  S
C1057      C1058   1.404       .  A
C1058      H1062   1.083       .  S
C1059      C1064   1.406       .  A
C1059      C1068   1.402       .  A
C1064      C1065   1.400       .  A
C1064      H1069   1.083       .  S
C1065      C1066   1.406       .  A
C1065      H1070   1.083       .  S
C1066      C1067   1.408       .  A
C1067      C1068   1.394       .  A
C1067      H1071   1.083       .  S
C1068      H1072   1.083       .  S
C1073      C1074   1.405       .  A
C1073      C1078   1.398       .  A
C1073      H1083   1.083       .  S
C1074      C1075   1.405       .  A
C1074      C1079   1.483       .  S
C1075      C1076   1.397       .  A
C1075      H1080   1.083       .  S
C1076      C1077   1.405       .  A
C1076      H1081   1.083       .  S
C1077      C1078   1.406       .  A
C1078      H1082   1.083       .  S
C1079      C1084   1.405       .  A
C1079      C1088   1.404       .  A
C1084      C1085   1.398       .  A
C1084      H1089   1.083       .  S
C1085      C1086   1.407       .  A
C1085      H1090   1.083       .  S
C1086      C1087   1.407       .  A
C1087      C1088   1.395       .  A
C1087      H1091   1.083       .  S
C1088      H1092   1.083       .  S
C1093      C1094   1.407       .  A
C1093      C1098   1.402       .  A
C1093      H1103   1.083       .  S
C1094      C1095   1.403       .  A
C1094      C1099   1.480       .  S
C1095      C1096   1.393       .  A
C1095      H1100   1.083       .  S
C1096      C1097   1.402       .  A
C1096      H1101   1.084       .  S
C1097      C1098   1.403       .  A
C1098      H1102   1.083       .  S
C1099      C1104   1.404       .  A
C1099      C1108   1.404       .  A
C1104      C1105   1.400       .  A
C1104      H1109   1.083       .  S
C1105      C1106   1.407       .  A
C1105      H1110   1.083       .  S
C1106      C1107   1.406       .  A
C1107      C1108   1.398       .  A
C1107      H1111   1.083       .  S
C1108      H1112   1.083       .  S
C1113      C1114   1.406       .  A
C1113      C1118   1.403       .  A
C1113      H1123   1.083       .  S
C1114      C1115   1.405       .  A
C1114      C1119   1.488       .  S
C1115      C1116   1.391       .  A
C1115      H1120   1.083       .  S
C1116      C1117   1.405       .  A
C1116      H1121   1.082       .  S
C1117      C1118   1.410       .  A
C1118      H1122   1.082       .  S
C1119      C1124   1.410       .  A
C1119      C1128   1.405       .  A
C1124      C1125   1.404       .  A
C1124      H1129   1.082       .  S
C1125      C1126   1.402       .  A
C1125      H1130   1.083       .  S
C1126      C1127   1.402       .  A
C1127      C1128   1.390       .  A
C1127      H1131   1.084       .  S
C1128      H1132   1.083       .  S
C1133      C1134   1.406       .  A
C1133      C1138   1.400       .  A
C1133      H1143   1.083       .  S
C1134      C1135   1.407       .  A
C1134      C1139   1.489       .  S
C1135      C1136   1.397       .  A
C1135      H1140   1.083       .  S
C1136      C1137   1.406       .  A
C1136      H1141   1.083       .  S
C1137      C1138   1.408       .  A
C1138      H1142   1.083       .  S
C1139      C1144   1.408       .  A
C1139      C1148   1.405       .  A
C1144      C1145   1.401       .  A
C1144      H1149   1.083       .  S
C1145      C1146   1.406       .  A
C1145      H1150   1.083       .  S
C1146      C1147   1.406       .  A
C1147      C1148   1.396       .  A
C1147      H1151   1.083       .  S
C1148      H1152   1.083       .  S
C1153      C1154   1.402       .  A
C1153      C1158   1.390       .  A
C1153      H1163   1.083       .  S
C1154      C1155   1.406       .  A
C1154      C1159   1.482       .  S
C1155      C1156   1.404       .  A
C1155      H1160   1.083       .  S
C1156      C1157   1.407       .  A
C1156      H1161   1.083       .  S
C1157      C1158   1.406       .  A
C1158      H1162   1.083       .  S
C1159      C1164   1.405       .  A
C1159      C1168   1.404       .  A
C1164      C1165   1.402       .  A
C1164      H1169   1.083       .  S
C1165      C1166   1.407       .  A
C1165      H1170   1.083       .  S
C1166      C1167   1.403       .  A
C1167      C1168   1.394       .  A
C1167      H1171   1.083       .  S
C1168      H1172   1.083       .  S
C1173      C1174   1.406       .  A
C1173      C1178   1.400       .  A
C1173      H1183   1.083       .  S
C1174      C1175   1.404       .  A
C1174      C1179   1.480       .  S
C1175      C1176   1.390       .  A
C1175      H1180   1.083       .  S
C1176      C1177   1.407       .  A
C1176      H1181   1.084       .  S
C1177      C1178   1.404       .  A
C1178      H1182   1.083       .  S
C1179      C1184   1.407       .  A
C1179      C1188   1.404       .  A
C1184      C1185   1.399       .  A
C1184      H1189   1.083       .  S
C1185      C1186   1.404       .  A
C1185      H1190   1.083       .  S
C1186      C1187   1.402       .  A
C1187      C1188   1.393       .  A
C1187      H1191   1.083       .  S
C1188      H1192   1.083       .  S
C1193      C1194   1.404       .  A
C1193      C1198   1.396       .  A
C1193      H1203   1.083       .  S
C1194      C1195   1.403       .  A
C1194      C1199   1.479       .  S
C1195      C1196   1.398       .  A
C1195      H1200   1.083       .  S
C1196      C1197   1.408       .  A
C1196      H1201   1.083       .  S
C1197      C1198   1.406       .  A
C1198      H1202   1.083       .  S
C1199      C1204   1.404       .  A
C1199      C1208   1.405       .  A
C1204      C1205   1.395       .  A
C1204      H1209   1.083       .  S
C1205      C1206   1.405       .  A
C1205      H1210   1.083       .  S
C1206      C1207   1.402       .  A
C1207      C1208   1.398       .  A
C1207      H1211   1.083       .  S
C1208      H1212   1.083       .  S
C1213      C1214   1.403       .  A
C1213      C1218   1.396       .  A
C1213      H1223   1.083       .  S
C1214      C1215   1.406       .  A
C1214      C1219   1.486       .  S
C1215      C1216   1.404       .  A
C1215      H1220   1.083       .  S
C1216      C1217   1.408       .  A
C1216      H1221   1.083       .  S
C1217      C1218   1.408       .  A
C1218      H1222   1.083       .  S
C1219      C1224   1.406       .  A
C1219      C1228   1.404       .  A
C1224      C1225   1.405       .  A
C1224      H1229   1.083       .  S
C1225      C1226   1.409       .  A
C1225      H1230   1.083       .  S
C1226      C1227   1.407       .  A
C1227      C1228   1.395       .  A
C1227      H1231   1.083       .  S
C1228      H1232   1.083       .  S
C1233      C1234   1.406       .  A
C1233      C1238   1.395       .  A
C1233      H1243   1.083       .  S
C1234      C1235   1.405       .  A
C1234      C1239   1.486       .  S
C1235      C1236   1.400       .  A
C1235      H1240   1.083       .  S
C1236      C1237   1.408       .  A
C1236      H1241   1.082       .  S
C1237      C1238   1.406       .  A
C1238      H1242   1.083       .  S
C1239      C1244   1.403       .  A
C1239      C1248   1.408       .  A
C1244      C1245   1.391       .  A
C1244      H1249   1.083       .  S
C1245      C1246   1.406       .  A
C1245      H1250   1.083       .  S
C1246      C1247   1.408       .  A
C1247      C1248   1.406       .  A
C1247      H1251   1.083       .  S
C1248      H1252   1.083       .  S
C1253      C1254   1.402       .  A
C1253      C1258   1.389       .  A
C1253      H1263   1.083       .  S
C1254      C1255   1.402       .  A
C1254      C1259   1.469       .  S
C1255      C1256   1.395       .  A
C1255      H1260   1.083       .  S
C1256      C1257   1.405       .  A
C1256      H1261   1.083       .  S
C1257      C1258   1.406       .  A
C1258      H1262   1.083       .  S
C1259      C1264   1.404       .  A
C1259      C1268   1.403       .  A
C1264      C1265   1.394       .  A
C1264      H1269   1.083       .  S
C1265      C1266   1.402       .  A
C1265      H1270   1.083       .  S
C1266      C1267   1.400       .  A
C1267      C1268   1.390       .  A
C1267      H1271   1.083       .  S
C1268      H1272   1.083       .  S
C1273      C1274   1.407       .  A
C1273      C1278   1.402       .  A
C1273      H1283   1.083       .  S
C1274      C1275   1.405       .  A
C1274      C1279   1.488       .  S
C1275      C1276   1.395       .  A
C1275      H1280   1.083       .  S
C1276      C1277   1.405       .  A
C1276      H1281   1.083       .  S
C1277      C1278   1.405       .  A
C1278      H1282   1.083       .  S
C1279      C1284   1.408       .  A
C1279      C1288   1.404       .  A
C1284      C1285   1.404       .  A
C1284      H1289   1.083       .  S
C1285      C1286   1.407       .  A
C1285      H1290   1.083       .  S
C1286      C1287   1.406       .  A
C1287      C1288   1.393       .  A
C1287      H1291   1.083       .  S
C1288      H1292   1.083       .  S
C1293      C1294   1.403       .  A
C1293      C1298   1.398       .  A
C1293      H1303   1.083       .  S
C1294      C1295   1.401       .  A
C1294      C1299   1.469       .  S
C1295      C1296   1.384       .  A
C1295      H1300   1.083       .  S
C1296      C1297   1.404       .  A
C1296      H1301   1.083       .  S
C1297      C1298   1.407       .  A
C1298      H1302   1.083       .  S
C1299      C1304   1.403       .  A
C1299      C1308   1.403       .  A
C1304      C1305   1.395       .  A
C1304      H1309   1.083       .  S
C1305      C1306   1.404       .  A
C1305      H1310   1.083       .  S
C1306      C1307   1.400       .  A
C1307      C1308   1.387       .  A
C1307      H1311   1.083       .  S
C1308      H1312   1.083       .  S
C1313      C1314   1.402       .  A
C1313      C1318   1.391       .  A
C1313      H1323   1.083       .  S
C1314      C1315   1.406       .  A
C1314      C1319   1.481       .  S
C1315      C1316   1.405       .  A
C1315      H1320   1.083       .  S
C1316      C1317   1.407       .  A
C1316      H1321   1.083       .  S
C1317      C1318   1.406       .  A
C1318      H1322   1.083       .  S
C1319      C1324   1.403       .  A
C1319      C1328   1.403       .  A
C1324      C1325   1.394       .  A
C1324      H1329   1.083       .  S
C1325      C1326   1.406       .  A
C1325      H1330   1.082       .  S
C1326      C1327   1.412       .  A
C1327      C1328   1.404       .  A
C1327      H1331   1.082       .  S
C1328      H1332   1.083       .  S
C1333      C1334   1.409       .  A
C1333      C1338   1.408       .  A
C1333      H1343   1.083       .  S
C1334      C1335   1.402       .  A
C1334      C1339   1.490       .  S
C1335      C1336   1.391       .  A
C1335      H1340   1.083       .  S
C1336      C1337   1.409       .  A
C1336      H1341   1.083       .  S
C1337      C1338   1.408       .  A
C1338      H1342   1.083       .  S
C1339      C1344   1.406   1_554  A
C1339      C1348   1.406       .  A
C1344      C1345   1.405       .  A
C1344      H1349   1.083       .  S
C1345      C1346   1.410   1_556  A
C1345      H1350   1.083       .  S
C1346      C1347   1.404       .  A
C1347      C1348   1.396       .  A
C1347      H1351   1.083       .  S
C1348      H1352   1.083       .  S
C1353      C1354   1.406       .  A
C1353      C1358   1.406       .  A
C1353      H1363   1.083       .  S
C1354      C1355   1.402       .  A
C1354      C1359   1.482       .  S
C1355      C1356   1.392       .  A
C1355      H1360   1.083       .  S
C1356      C1357   1.406       .  A
C1356      H1361   1.083       .  S
C1357      C1358   1.409       .  A
C1358      H1362   1.083       .  S
C1359      C1364   1.405       .  A
C1359      C1368   1.404       .  A
C1364      C1365   1.404       .  A
C1364      H1369   1.083       .  S
C1365      C1366   1.409       .  A
C1365      H1370   1.083       .  S
C1366      C1367   1.403       .  A
C1367      C1368   1.394       .  A
C1367      H1371   1.083       .  S
C1368      H1372   1.083       .  S
C1373      C1374   1.408       .  A
C1373      C1378   1.405       .  A
C1373      H1383   1.083       .  S
C1374      C1375   1.405       .  A
C1374      C1379   1.490       .  S
C1375      C1376   1.395       .  A
C1375      H1380   1.083       .  S
C1376      C1377   1.405       .  A
C1376      H1381   1.083       .  S
C1377      C1378   1.407       .  A
C1378      H1382   1.083       .  S
C1379      C1384   1.405       .  A
C1379      C1388   1.407       .  A
C1384      C1385   1.403       .  A
C1384      H1389   1.083       .  S
C1385      C1386   1.411       .  A
C1385      H1390   1.083       .  S
C1386      C1387   1.405       .  A
C1387      C1388   1.398       .  A
C1387      H1391   1.083       .  S
C1388      H1392   1.083       .  S
C1393      C1394   1.403       .  A
C1393      C1398   1.392       .  A
C1393      H1403   1.083       .  S
C1394      C1395   1.409       .  A
C1394      C1399   1.490       .  S
C1395      C1396   1.410       .  A
C1395      H1400   1.083       .  S
C1396      C1397   1.408       .  A
C1396      H1401   1.083       .  S
C1397      C1398   1.408       .  A
C1398      H1402   1.083       .  S
C1399      C1404   1.405       .  A
C1399      C1408   1.407       .  A
C1404      C1405   1.394       .  A
C1404      H1409   1.083       .  S
C1405      C1406   1.405       .  A
C1405      H1410   1.083       .  S
C1406      C1407   1.409       .  A
C1407      C1408   1.407       .  A
C1407      H1411   1.083       .  S
C1408      H1412   1.083       .  S
C1413      C1414   1.404       .  A
C1413      C1418   1.392       .  A
C1413      H1423   1.083       .  S
C1414      C1415   1.408       .  A
C1414      C1419   1.486       .  S
C1415      C1416   1.404       .  A
C1415      H1420   1.083       .  S
C1416      C1417   1.406       .  A
C1416      H1421   1.083       .  S
C1417      C1418   1.405       .  A
C1418      H1422   1.083       .  S
C1419      C1424   1.405       .  A
C1419      C1428   1.407       .  A
C1424      C1425   1.395       .  A
C1424      H1429   1.083       .  S
C1425      C1426   1.404       .  A
C1425      H1430   1.083       .  S
C1426      C1427   1.404       .  A
C1427      C1428   1.402       .  A
C1427      H1431   1.083       .  S
C1428      H1432   1.083       .  S
C1433      C1434   1.406       .  A
C1433      C1438   1.404       .  A
C1433      H1443   1.083       .  S
C1434      C1435   1.401       .  A
C1434      C1439   1.480       .  S
C1435      C1436   1.388       .  A
C1435      H1440   1.083       .  S
C1436      C1437   1.405       .  A
C1436      H1441   1.083       .  S
C1437      C1438   1.407       .  A
C1438      H1442   1.083       .  S
C1439      C1444   1.404       .  A
C1439      C1448   1.404       .  A
C1444      C1445   1.392       .  A
C1444      H1449   1.083       .  S
C1445      C1446   1.403       .  A
C1445      H1450   1.083       .  S
C1446      C1447   1.409       .  A
C1447      C1448   1.403       .  A
C1447      H1451   1.083       .  S
C1448      H1452   1.083       .  S
C1453      C1454   1.405       .  A
C1453      C1458   1.396       .  A
C1453      H1463   1.083       .  S
C1454      C1455   1.408       .  A
C1454      C1459   1.491       .  S
C1455      C1456   1.405       .  A
C1455      H1460   1.083       .  S
C1456      C1457   1.408       .  A
C1456      H1461   1.083       .  S
C1457      C1458   1.405       .  A
C1458      H1462   1.083       .  S
C1459      C1464   1.406       .  A
C1459      C1468   1.406       .  A
C1464      C1465   1.398       .  A
C1464      H1469   1.083       .  S
C1465      C1466   1.406       .  A
C1465      H1470   1.083       .  S
C1466      C1467   1.410       .  A
C1467      C1468   1.404       .  A
C1467      H1471   1.083       .  S
C1468      H1472   1.083       .  S
C1473      C1474   1.406       .  A
C1473      C1478   1.402       .  A
C1473      H1483   1.083       .  S
C1474      C1475   1.405       .  A
C1474      C1479   1.481       .  S
C1475      C1476   1.392       .  A
C1475      H1480   1.083       .  S
C1476      C1477   1.402       .  A
C1476      H1481   1.083       .  S
C1477      C1478   1.406       .  A
C1478      H1482   1.083       .  S
C1479      C1484   1.407       .  A
C1479      C1488   1.401       .  A
C1484      C1485   1.405       .  A
C1484      H1489   1.083       .  S
C1485      C1486   1.407       .  A
C1485      H1490   1.083       .  S
C1486      C1487   1.408       .  A
C1487      C1488   1.388       .  A
C1487      H1491   1.083       .  S
C1488      H1492   1.083       .  S
C1493      C1494   1.409       .  A
C1493      C1498   1.407       .  A
C1493      H1503   1.083       .  S
C1494      C1495   1.404       .  A
C1494      C1499   1.493       .  S
C1495      C1496   1.395       .  A
C1495      H1500   1.083       .  S
C1496      C1497   1.408       .  A
C1496      H1501   1.083       .  S
C1497      C1498   1.408       .  A
C1498      H1502   1.083       .  S
C1499      C1504   1.408       .  A
C1499      C1508   1.407       .  A
C1504      C1505   1.404       .  A
C1504      H1509   1.083       .  S
C1505      C1506   1.406       .  A
C1505      H1510   1.083       .  S
C1506      C1507   1.404       .  A
C1507      C1508   1.397       .  A
C1507      H1511   1.083       .  S
C1508      H1512   1.083       .  S
C1513      C1514   1.402       .  A
C1513      C1518   1.390       .  A
C1513      H1523   1.083       .  S
C1514      C1515   1.407       .  A
C1514      C1519   1.479       .  S
C1515      C1516   1.404       .  A
C1515      H1520   1.083       .  S
C1516      C1517   1.405       .  A
C1516      H1521   1.083       .  S
C1517      C1518   1.405       .  A
C1518      H1522   1.084       .  S
C1519      C1524   1.404       .  A
C1519      C1528   1.403       .  A
C1524      C1525   1.393       .  A
C1524      H1529   1.084       .  S
C1525      C1526   1.406       .  A
C1525      H1530   1.083       .  S
C1526      C1527   1.408       .  A
C1527      C1528   1.402       .  A
C1527      H1531   1.082       .  S
C1528      H1532   1.083       .  S
C1533      C1534   1.407       .  A
C1533      C1538   1.395       .  A
C1533      H1543   1.082       .  S
C1534      C1535   1.410       .  A
C1534      C1539   1.494       .  S
C1535      C1536   1.403       .  A
C1535      H1540   1.082       .  S
C1536      C1537   1.405       .  A
C1536      H1541   1.083       .  S
C1537      C1538   1.404       .  A
C1538      H1542   1.083       .  S
C1539      C1544   1.408       .  A
C1539      C1548   1.410       .  A
C1544      C1545   1.397       .  A
C1544      H1549   1.082       .  S
C1545      C1546   1.404       .  A
C1545      H1550   1.083       .  S
C1546      C1547   1.403       .  A
C1547      C1548   1.402       .  A
C1547      H1551   1.083       .  S
C1548      H1552   1.082       .  S
C1553      C1554   1.405       .  A
C1553      C1558   1.401       .  A
C1553      H1563   1.083       .  S
C1554      C1555   1.407       .  A
C1554      C1559   1.490       .  S
C1555      C1556   1.398       .  A
C1555      H1560   1.083       .  S
C1556      C1557   1.407       .  A
C1556      H1561   1.082       .  S
C1557      C1558   1.410       .  A
C1558      H1562   1.082       .  S
C1559      C1564   1.408       .  A
C1559      C1568   1.405       .  A
C1564      C1565   1.403       .  A
C1564      H1569   1.083       .  S
C1565      C1566   1.408       .  A
C1565      H1570   1.083       .  S
C1566      C1567   1.407       .  A
C1567      C1568   1.395       .  A
C1567      H1571   1.083       .  S
C1568      H1572   1.083       .  S
C1573      C1574   1.405       .  A
C1573      C1578   1.395       .  A
C1573      H1583   1.083       .  S
C1574      C1575   1.407       .  A
C1574      C1579   1.489       .  S
C1575      C1576   1.405       .  A
C1575      H1580   1.083       .  S
C1576      C1577   1.407       .  A
C1576      H1581   1.083       .  S
C1577      C1578   1.406       .  A
C1578      H1582   1.083       .  S
C1579      C1584   1.406       .  A
C1579      C1588   1.408       .  A
C1584      C1585   1.397       .  A
C1584      H1589   1.083       .  S
C1585      C1586   1.403       .  A
C1585      H1590   1.083       .  S
C1586      C1587   1.405       .  A
C1587      C1588   1.403       .  A
C1587      H1591   1.083       .  S
C1588      H1592   1.083       .  S
C1593      C1594   1.401       .  A
C1593      C1598   1.390       .  A
C1593      H1603   1.084       .  S
C1594      C1595   1.405       .  A
C1594      C1599   1.480       .  S
C1595      C1596   1.406       .  A
C1595      H1600   1.083       .  S
C1596      C1597   1.409       .  A
C1596      H1601   1.083       .  S
C1597      C1598   1.406       .  A
C1598      H1602   1.083       .  S
C1599      C1604   1.403       .  A
C1599      C1608   1.404       .  A
C1604      C1605   1.392       .  A
C1604      H1609   1.084       .  S
C1605      C1606   1.404       .  A
C1605      H1610   1.083       .  S
C1606      C1607   1.410       .  A
C1607      C1608   1.405       .  A
C1607      H1611   1.083       .  S
C1608      H1612   1.083       .  S
C1613      C1614   1.403       .  A
C1613      C1618   1.394       .  A
C1613      H1623   1.083       .  S
C1614      C1615   1.406       .  A
C1614      C1619   1.480       .  S
C1615      C1616   1.399       .  A
C1615      H1620   1.083       .  S
C1616      C1617   1.405       .  A
C1616      H1621   1.083       .  S
C1617      C1618   1.404       .  A
C1618      H1622   1.083       .  S
C1619      C1624   1.405       .  A
C1619      C1628   1.404       .  A
C1624      C1625   1.394       .  A
C1624      H1629   1.083       .  S
C1625      C1626   1.405       .  A
C1625      H1630   1.083       .  S
C1626      C1627   1.406       .  A
C1627      C1628   1.399       .  A
C1627      H1631   1.083       .  S
C1628      H1632   1.083       .  S
C1633      C1634   1.406       .  A
C1633      C1638   1.394       .  A
C1633      H1643   1.083       .  S
C1634      C1635   1.405       .  A
C1634      C1639   1.485       .  S
C1635      C1636   1.400       .  A
C1635      H1640   1.083       .  S
C1636      C1637   1.407       .  A
C1636      H1641   1.083       .  S
C1637      C1638   1.406       .  A
C1638      H1642   1.083       .  S
C1639      C1644   1.404       .  A
C1639      C1648   1.409       .  A
C1644      C1645   1.392       .  A
C1644      H1649   1.083       .  S
C1645      C1646   1.403       .  A
C1645      H1650   1.084       .  S
C1646      C1647   1.402       .  A
C1647      C1648   1.402       .  A
C1647      H1651   1.083       .  S
C1648      H1652   1.083       .  S
C1653      C1654   1.403       .  A
C1653      C1658   1.391       .  A
C1653      H1663   1.083       .  S
C1654      C1655   1.408       .  A
C1654      C1659   1.485       .  S
C1655      C1656   1.404       .  A
C1655      H1660   1.083       .  S
C1656      C1657   1.407       .  A
C1656      H1661   1.083       .  S
C1657      C1658   1.405       .  A
C1658      H1662   1.083       .  S
C1659      C1664   1.407       .  A
C1659      C1668   1.405       .  A
C1664      C1665   1.398       .  A
C1664      H1669   1.083       .  S
C1665      C1666   1.404       .  A
C1665      H1670   1.083       .  S
C1666      C1667   1.405       .  A
C1667      C1668   1.398       .  A
C1667      H1671   1.083       .  S
C1668      H1672   1.083       .  S
C1673      C1674   1.406       .  A
C1673      C1678   1.397       .  A
C1673      H1683   1.083       .  S
C1674      C1675   1.403       .  A
C1674      C1679   1.484       .  S
C1675      C1676   1.400       .  A
C1675      H1680   1.083       .  S
C1676      C1677   1.409       .  A
C1676      H1681   1.083       .  S
C1677      C1678   1.405       .  A
C1678      H1682   1.083       .  S
C1679      C1684   1.403       .  A
C1679      C1688   1.408       .  A
C1684      C1685   1.394       .  A
C1684      H1689   1.083       .  S
C1685      C1686   1.404       .  A
C1685      H1690   1.083       .  S
C1686      C1687   1.406       .  A
C1687      C1688   1.403       .  A
C1687      H1691   1.083       .  S
C1688      H1692   1.083       .  S
C1693      C1694   1.404       .  A
C1693      C1698   1.398       .  A
C1693      H1703   1.083       .  S
C1694      C1695   1.407       .  A
C1694      C1699   1.484       .  S
C1695      C1696   1.397       .  A
C1695      H1700   1.083   1_655  S
C1696      C1697   1.403       .  A
C1696      H1701   1.083   1_655  S
C1697      C1698   1.407       .  A
C1698      H1702   1.083       .  S
C1699      C1704   1.403       .  A
C1699      C1708   1.407       .  A
C1704      C1705   1.393       .  A
C1704      H1709   1.083       .  S
C1705      C1706   1.407       .  A
C1705      H1710   1.083       .  S
C1706      C1707   1.408       .  A
C1707      C1708   1.401       .  A
C1707      H1711   1.083       .  S
C1708      H1712   1.083       .  S
C1713      C1714   1.407       .  A
C1713      C1718   1.390       .  A
C1713      H1723   1.083       .  S
C1714      C1715   1.404       .  A
C1714      C1719   1.478       .  S
C1715      C1716   1.398       .  A
C1715      H1720   1.083       .  S
C1716      C1717   1.402       .  A
C1716      H1721   1.083       .  S
C1717      C1718   1.401       .  A
C1718      H1722   1.084       .  S
C1719      C1724   1.407       .  A
C1719      C1728   1.400       .  A
C1724      C1725   1.403       .  A
C1724      H1729   1.083       .  S
C1725      C1726   1.406       .  A
C1725      H1730   1.083       .  S
C1726      C1727   1.407       .  A
C1727      C1728   1.385       .  A
C1727      H1731   1.083       .  S
C1728      H1732   1.083       .  S
C1733      C1734   1.407       .  A
C1733      C1738   1.404       .  A
C1733      H1743   1.083       .  S
C1734      C1735   1.405       .  A
C1734      C1739   1.484       .  S
C1735      C1736   1.389       .  A
C1735      H1740   1.083       .  S
C1736      C1737   1.400       .  A
C1736      H1741   1.083       .  S
C1737      C1738   1.406       .  A
C1738      H1742   1.083       .  S
C1739      C1744   1.407       .  A
C1739      C1748   1.402       .  A
C1744      C1745   1.406       .  A
C1744      H1749   1.083       .  S
C1745      C1746   1.407       .  A
C1745      H1750   1.083       .  S
C1746      C1747   1.407       .  A
C1747      C1748   1.387       .  A
C1747      H1751   1.083       .  S
C1748      H1752   1.083       .  S
C1753      C1754   1.407       .  A
C1753      C1758   1.402       .  A
C1753      H1763   1.083       .  S
C1754      C1755   1.407       .  A
C1754      C1759   1.492       .  S
C1755      C1756   1.397       .  A
C1755      H1760   1.083       .  S
C1756      C1757   1.405       .  A
C1756      H1761   1.083       .  S
C1757      C1758   1.406       .  A
C1758      H1762   1.083       .  S
C1759      C1764   1.405       .  A
C1759      C1768   1.409       .  A
C1764      C1765   1.395       .  A
C1764      H1769   1.083       .  S
C1765      C1766   1.407       .  A
C1765      H1770   1.083       .  S
C1766      C1767   1.406       .  A
C1767      C1768   1.406       .  A
C1767      H1771   1.083       .  S
C1768      H1772   1.083       .  S
C1773      C1774   1.403       .  A
C1773      C1778   1.394       .  A
C1773      H1783   1.083       .  S
C1774      C1775   1.407       .  A
C1774      C1779   1.484       .  S
C1775      C1776   1.404       .  A
C1775      H1780   1.083       .  S
C1776      C1777   1.407       .  A
C1776      H1781   1.083       .  S
C1777      C1778   1.404       .  A
C1778      H1782   1.083       .  S
C1779      C1784   1.404       .  A
C1779      C1788   1.404       .  A
C1784      C1785   1.403       .  A
C1784      H1789   1.083       .  S
C1785      C1786   1.410       .  A
C1785      H1790   1.083       .  S
C1786      C1787   1.407       .  A
C1787      C1788   1.397       .  A
C1787      H1791   1.083       .  S
C1788      H1792   1.083       .  S
C1793      C1794   1.403       .  A
C1793      C1798   1.400       .  A
C1793      H1803   1.083   1_545  S
C1794      C1795   1.403       .  A
C1794      C1799   1.479       .  S
C1795      C1796   1.398       .  A
C1795      H1800   1.083       .  S
C1796      C1797   1.405       .  A
C1796      H1801   1.083       .  S
C1797      C1798   1.407       .  A
C1798      H1802   1.083   1_545  S
C1799      C1804   1.402       .  A
C1799      C1808   1.404       .  A
C1804      C1805   1.399       .  A
C1804      H1809   1.083       .  S
C1805      C1806   1.410       .  A
C1805      H1810   1.083       .  S
C1806      C1807   1.406       .  A
C1807      C1808   1.398       .  A
C1807      H1811   1.083       .  S
C1808      H1812   1.083       .  S
C1813      C1814   1.405       .  A
C1813      C1818   1.402       .  A
C1813      H1823   1.083       .  S
C1814      C1815   1.402       .  A
C1814      C1819   1.480       .  S
C1815      C1816   1.393       .  A
C1815      H1820   1.083       .  S
C1816      C1817   1.406       .  A
C1816      H1821   1.083       .  S
C1817      C1818   1.407       .  A
C1818      H1822   1.083       .  S
C1819      C1824   1.403       .  A
C1819      C1828   1.404       .  A
C1824      C1825   1.401       .  A
C1824      H1829   1.083       .  S
C1825      C1826   1.408       .  A
C1825      H1830   1.083       .  S
C1826      C1827   1.405       .  A
C1827      C1828   1.395       .  A
C1827      H1831   1.083       .  S
C1828      H1832   1.083       .  S
C1833      C1834   1.406       .  A
C1833      C1838   1.401       .  A
C1833      H1843   1.082       .  S
C1834      C1835   1.408       .  A
C1834      C1839   1.492       .  S
C1835      C1836   1.398       .  A
C1835      H1840   1.083       .  S
C1836      C1837   1.406       .  A
C1836      H1841   1.083       .  S
C1837      C1838   1.407       .  A
C1838      H1842   1.082       .  S
C1839      C1844   1.411       .  A
C1839      C1848   1.404       .  A
C1844      C1845   1.406       .  A
C1844      H1849   1.083       .  S
C1845      C1846   1.406       .  A
C1845      H1850   1.083       .  S
C1846      C1847   1.403       .  A
C1847      C1848   1.390       .  A
C1847      H1851   1.082       .  S
C1848      H1852   1.082       .  S
C1853      C1854   1.406       .  A
C1853      C1858   1.399       .  A
C1853      H1863   1.083       .  S
C1854      C1855   1.404       .  A
C1854      C1859   1.484       .  S
C1855      C1856   1.398       .  A
C1855      H1860   1.083   1_655  S
C1856      C1857   1.409       .  A
C1856      H1861   1.083   1_655  S
C1857      C1858   1.405       .  A
C1858      H1862   1.083       .  S
C1859      C1864   1.403       .  A
C1859      C1868   1.406       .  A
C1864      C1865   1.395       .  A
C1864      H1869   1.083       .  S
C1865      C1866   1.409       .  A
C1865      H1870   1.083       .  S
C1866      C1867   1.406       .  A
C1867      C1868   1.401       .  A
C1867      H1871   1.083       .  S
C1868      H1872   1.083       .  S
C1873      C1874   1.405       .  A
C1873      C1878   1.399       .  A
C1873      H1883   1.083       .  S
C1874      C1875   1.403       .  A
C1874      C1879   1.478       .  S
C1875      C1876   1.391       .  A
C1875      H1880   1.083       .  S
C1876      C1877   1.406       .  A
C1876      H1881   1.083       .  S
C1877      C1878   1.406       .  A
C1878      H1882   1.083       .  S
C1879      C1884   1.404       .  A
C1879      C1888   1.405       .  A
C1884      C1885   1.396       .  A
C1884      H1889   1.083       .  S
C1885      C1886   1.405       .  A
C1885      H1890   1.083       .  S
C1886      C1887   1.402       .  A
C1887      C1888   1.394       .  A
C1887      H1891   1.083       .  S
C1888      H1892   1.083       .  S
C1893      C1894   1.403       .  A
C1893      C1898   1.391       .  A
C1893      H1903   1.083       .  S
C1894      C1895   1.404       .  A
C1894      C1899   1.475       .  S
C1895      C1896   1.397       .  A
C1895      H1900   1.083       .  S
C1896      C1897   1.405       .  A
C1896      H1901   1.083       .  S
C1897      C1898   1.403       .  A
C1898      H1902   1.083       .  S
C1899      C1904   1.402       .  A
C1899      C1908   1.404       .  A
C1904      C1905   1.389       .  A
C1904      H1909   1.083       .  S
C1905      C1906   1.405       .  A
C1905      H1910   1.083       .  S
C1906      C1907   1.408       .  A
C1907      C1908   1.400       .  A
C1907      H1911   1.083       .  S
C1908      H1912   1.083       .  S
C1913      C1914   1.404       .  A
C1913      C1918   1.395       .  A
C1913      H1923   1.083       .  S
C1914      C1915   1.403       .  A
C1914      C1919   1.480       .  S
C1915      C1916   1.396       .  A
C1915      H1920   1.083       .  S
C1916      C1917   1.407       .  A
C1916      H1921   1.083       .  S
C1917      C1918   1.406       .  A
C1918      H1922   1.083       .  S
C1919      C1924   1.405       .  A
C1919      C1928   1.404       .  A
C1924      C1925   1.397       .  A
C1924      H1929   1.083       .  S
C1925      C1926   1.404       .  A
C1925      H1930   1.083       .  S
C1926      C1927   1.406       .  A
C1927      C1928   1.396       .  A
C1927      H1931   1.083       .  S
C1928      H1932   1.083       .  S
C1933      C1934   1.404       .  A
C1933      C1938   1.393       .  A
C1933      H1943   1.083       .  S
C1934      C1935   1.407       .  A
C1934      C1939   1.481       .  S
C1935      C1936   1.399       .  A
C1935      H1940   1.083       .  S
C1936      C1937   1.404       .  A
C1936      H1941   1.083       .  S
C1937      C1938   1.402       .  A
C1938      H1942   1.083       .  S
C1939      C1944   1.406       .  A
C1939      C1948   1.404       .  A
C1944      C1945   1.395       .  A
C1944      H1949   1.083       .  S
C1945      C1946   1.405       .  A
C1945      H1950   1.083       .  S
C1946      C1947   1.407       .  A
C1947      C1948   1.397       .  A
C1947      H1951   1.083       .  S
C1948      H1952   1.083       .  S
C1953      C1954   1.409       .  A
C1953      C1958   1.401       .  A
C1953      H1963   1.082       .  S
C1954      C1955   1.405       .  A
C1954      C1959   1.484       .  S
C1955      C1956   1.389       .  A
C1955      H1960   1.082       .  S
C1956      C1957   1.403       .  A
C1956      H1961   1.084       .  S
C1957      C1958   1.403       .  A
C1958      H1962   1.083       .  S
C1959      C1964   1.407       .  A
C1959      C1968   1.407       .  A
C1964      C1965   1.393       .  A
C1964      H1969   1.083       .  S
C1965      C1966   1.402       .  A
C1965      H1970   1.083       .  S
C1966      C1967   1.403       .  A
C1967      C1968   1.397       .  A
C1967      H1971   1.083       .  S
C1968      H1972   1.082       .  S
C1973      C1974   1.404   1_455  A
C1973      C1978   1.397       .  A
C1973      H1983   1.083       .  S
C1974      C1975   1.405       .  A
C1974      C1979   1.481       .  S
C1975      C1976   1.396       .  A
C1975      H1980   1.083       .  S
C1976      C1977   1.406       .  A
C1976      H1981   1.083       .  S
C1977      C1978   1.406   1_655  A
C1978      H1982   1.083       .  S
C1979      C1984   1.403       .  A
C1979      C1988   1.405       .  A
C1984      C1985   1.396       .  A
C1984      H1989   1.083       .  S
C1985      C1986   1.407       .  A
C1985      H1990   1.083       .  S
C1986      C1987   1.407       .  A
C1987      C1988   1.398       .  A
C1987      H1991   1.083       .  S
C1988      H1992   1.083       .  S
C1993      C1994   1.402       .  A
C1993      C1998   1.391       .  A
C1993      H2003   1.083       .  S
C1994      C1995   1.403       .  A
C1994      C1999   1.473       .  S
C1995      C1996   1.403       .  A
C1995      H2000   1.083       .  S
C1996      C1997   1.408       .  A
C1996      H2001   1.083       .  S
C1997      C1998   1.402       .  A
C1998      H2002   1.083       .  S
C1999      C2004   1.401       .  A
C1999      C2008   1.403       .  A
C2004      C2005   1.390       .  A
C2004      H2009   1.084       .  S
C2005      C2006   1.404       .  A
C2005      H2010   1.083       .  S
C2006      C2007   1.410       .  A
C2007      C2008   1.404       .  A
C2007      H2011   1.083       .  S
C2008      H2012   1.083       .  S
C2013      C2014   1.402       .  A
C2013      C2018   1.391       .  A
C2013      H2023   1.084       .  S
C2014      C2015   1.402       .  A
C2014      C2019   1.473       .  S
C2015      C2016   1.400       .  A
C2015      H2020   1.083       .  S
C2016      C2017   1.408       .  A
C2016      H2021   1.083       .  S
C2017      C2018   1.405       .  A
C2018      H2022   1.083       .  S
C2019      C2024   1.404       .  A
C2019      C2028   1.400       .  A
C2024      C2025   1.402       .  A
C2024      H2029   1.083       .  S
C2025      C2026   1.406       .  A
C2025      H2030   1.083       .  S
C2026      C2027   1.405       .  A
C2027      C2028   1.390       .  A
C2027      H2031   1.083       .  S
C2028      H2032   1.084       .  S
C2033      C2034   1.410       .  A
C2033      C2038   1.407       .  A
C2033      H2043   1.083       .  S
C2034      C2035   1.404       .  A
C2034      C2039   1.494       .  S
C2035      C2036   1.394       .  A
C2035      H2040   1.083       .  S
C2036      C2037   1.406       .  A
C2036      H2041   1.083       .  S
C2037      C2038   1.409       .  A
C2038      H2042   1.083       .  S
C2039      C2044   1.408       .  A
C2039      C2048   1.407       .  A
C2044      C2045   1.398       .  A
C2044      H2049   1.083       .  S
C2045      C2046   1.404       .  A
C2045      H2050   1.083       .  S
C2046      C2047   1.408       .  A
C2047      C2048   1.403       .  A
C2047      H2051   1.083   1_655  S
C2048      H2052   1.083   1_655  S
C2053      C2054   1.403       .  A
C2053      C2058   1.399       .  A
C2053      H2063   1.083       .  S
C2054      C2055   1.404       .  A
C2054      C2059   1.474       .  S
C2055      C2056   1.392       .  A
C2055      H2060   1.083       .  S
C2056      C2057   1.403       .  A
C2056      H2061   1.083       .  S
C2057      C2058   1.407       .  A
C2058      H2062   1.083       .  S
C2059      C2064   1.405       .  A
C2059      C2068   1.401       .  A
C2064      C2065   1.401       .  A
C2064      H2069   1.083       .  S
C2065      C2066   1.406       .  A
C2065      H2070   1.083       .  S
C2066      C2067   1.406       .  A
C2067      C2068   1.388       .  A
C2067      H2071   1.083       .  S
C2068      H2072   1.084       .  S
C2073      C2074   1.404       .  A
C2073      C2078   1.393       .  A
C2073      H2083   1.083       .  S
C2074      C2075   1.406       .  A
C2074      C2079   1.480       .  S
C2075      C2076   1.400       .  A
C2075      H2080   1.083       .  S
C2076      C2077   1.404       .  A
C2076      H2081   1.083       .  S
C2077      C2078   1.401       .  A
C2078      H2082   1.083       .  S
C2079      C2084   1.404       .  A
C2079      C2088   1.403       .  A
C2084      C2085   1.394       .  A
C2084      H2089   1.083       .  S
C2085      C2086   1.405       .  A
C2085      H2090   1.083       .  S
C2086      C2087   1.409       .  A
C2087      C2088   1.400       .  A
C2087      H2091   1.083       .  S
C2088      H2092   1.083       .  S
C2093      C2094   1.407       .  A
C2093      C2098   1.399       .  A
C2093      H2103   1.083       .  S
C2094      C2095   1.406       .  A
C2094      C2099   1.487       .  S
C2095      C2096   1.396       .  A
C2095      H2100   1.082       .  S
C2096      C2097   1.403       .  A
C2096      H2101   1.083       .  S
C2097      C2098   1.406       .  A
C2098      H2102   1.083       .  S
C2099      C2104   1.405       .  A
C2099      C2108   1.407       .  A
C2104      C2105   1.398       .  A
C2104      H2109   1.083       .  S
C2105      C2106   1.408       .  A
C2105      H2110   1.083       .  S
C2106      C2107   1.406       .  A
C2107      C2108   1.398       .  A
C2107      H2111   1.083       .  S
C2108      H2112   1.083       .  S
C2113      C2114   1.405       .  A
C2113      C2118   1.393       .  A
C2113      H2123   1.083       .  S
C2114      C2115   1.406       .  A
C2114      C2119   1.486       .  S
C2115      C2116   1.401       .  A
C2115      H2120   1.083       .  S
C2116      C2117   1.408       .  A
C2116      H2121   1.083       .  S
C2117      C2118   1.404       .  A
C2118      H2122   1.083       .  S
C2119      C2124   1.406       .  A
C2119      C2128   1.407       .  A
C2124      C2125   1.394       .  A
C2124      H2129   1.083       .  S
C2125      C2126   1.404       .  A
C2125      H2130   1.083       .  S
C2126      C2127   1.404       .  A
C2127      C2128   1.401       .  A
C2127      H2131   1.083       .  S
C2128      H2132   1.083       .  S
C2133      C2134   1.406       .  A
C2133      C2138   1.397       .  A
C2133      H2143   1.083       .  S
C2134      C2135   1.407       .  A
C2134      C2139   1.490       .  S
C2135      C2136   1.401       .  A
C2135      H2140   1.083       .  S
C2136      C2137   1.406       .  A
C2136      H2141   1.083       .  S
C2137      C2138   1.405       .  A
C2138      H2142   1.083       .  S
C2139      C2144   1.406       .  A
C2139      C2148   1.407       .  A
C2144      C2145   1.396       .  A
C2144      H2149   1.083       .  S
C2145      C2146   1.406       .  A
C2145      H2150   1.083       .  S
C2146      C2147   1.405       .  A
C2147      C2148   1.402       .  A
C2147      H2151   1.083       .  S
C2148      H2152   1.083       .  S
C2153      C2154   1.405       .  A
C2153      C2158   1.397       .  A
C2153      H2163   1.083       .  S
C2154      C2155   1.404   1_556  A
C2154      C2159   1.482       .  S
C2155      C2156   1.396       .  A
C2155      H2160   1.083       .  S
C2156      C2157   1.407       .  A
C2156      H2161   1.083       .  S
C2157      C2158   1.407   1_554  A
C2158      H2162   1.083       .  S
C2159      C2164   1.404   1_556  A
C2159      C2168   1.406       .  A
C2164      C2165   1.395       .  A
C2164      H2169   1.083       .  S
C2165      C2166   1.405   1_554  A
C2165      H2170   1.083       .  S
C2166      C2167   1.405       .  A
C2167      C2168   1.399       .  A
C2167      H2171   1.083       .  S
C2168      H2172   1.083       .  S
C2173      C2174   1.407       .  A
C2173      C2178   1.395       .  A
C2173      H2183   1.083       .  S
C2174      C2175   1.407       .  A
C2174      C2179   1.493       .  S
C2175      C2176   1.406       .  A
C2175      H2180   1.083       .  S
C2176      C2177   1.409       .  A
C2176      H2181   1.082       .  S
C2177      C2178   1.406       .  A
C2178      H2182   1.083       .  S
C2179      C2184   1.402       .  A
C2179      C2188   1.411       .  A
C2184      C2185   1.389       .  A
C2184      H2189   1.083       .  S
C2185      C2186   1.409       .  A
C2185      H2190   1.083       .  S
C2186      C2187   1.407       .  A
C2187      C2188   1.410       .  A
C2187      H2191   1.083       .  S
C2188      H2192   1.082       .  S
C2193      C2194   1.405       .  A
C2193      C2198   1.399       .  A
C2193      H2203   1.083       .  S
C2194      C2195   1.407       .  A
C2194      C2199   1.491       .  S
C2195      C2196   1.404       .  A
C2195      H2200   1.083       .  S
C2196      C2197   1.407       .  A
C2196      H2201   1.083       .  S
C2197      C2198   1.409       .  A
C2198      H2202   1.083       .  S
C2199      C2204   1.406       .  A
C2199      C2208   1.407       .  A
C2204      C2205   1.400       .  A
C2204      H2209   1.083       .  S
C2205      C2206   1.408       .  A
C2205      H2210   1.083       .  S
C2206      C2207   1.406       .  A
C2207      C2208   1.403       .  A
C2207      H2211   1.083       .  S
C2208      H2212   1.083       .  S
C2213      C2214   1.411       .  A
C2213      C2218   1.403       .  A
C2213      H2223   1.082       .  S
C2214      C2215   1.406       .  A
C2214      C2219   1.496       .  S
C2215      C2216   1.395       .  A
C2215      H2220   1.082   1_554  S
C2216      C2217   1.408       .  A
C2216      H2221   1.083   1_554  S
C2217      C2218   1.405       .  A
C2218      H2222   1.083       .  S
C2219      C2224   1.408       .  A
C2219      C2228   1.409   1_554  A
C2224      C2225   1.401       .  A
C2224      H2229   1.082       .  S
C2225      C2226   1.407       .  A
C2225      H2230   1.083       .  S
C2226      C2227   1.405   1_554  A
C2227      C2228   1.399       .  A
C2227      H2231   1.083       .  S
C2228      H2232   1.082       .  S
C2233      C2234   1.411       .  A
C2233      C2238   1.404       .  A
C2233      H2243   1.081       .  S
C2234      C2235   1.406       .  A
C2234      C2239   1.499       .  S
C2235      C2236   1.392       .  A
C2235      H2240   1.081       .  S
C2236      C2237   1.410       .  A
C2236      H2241   1.082       .  S
C2237      C2238   1.407       .  A
C2238      H2242   1.082       .  S
C2239      C2244   1.411       .  A
C2239      C2248   1.410       .  A
C2244      C2245   1.402       .  A
C2244      H2249   1.081       .  S
C2245      C2246   1.403       .  A
C2245      H2250   1.083       .  S
C2246      C2247   1.402       .  A
C2247      C2248   1.396       .  A
C2247      H2251   1.082       .  S
C2248      H2252   1.081       .  S
C2253      C2254   1.406       .  A
C2253      C2258   1.408       .  A
C2253      H2263   1.083       .  S
C2254      C2255   1.401       .  A
C2254      C2259   1.482       .  S
C2255      C2256   1.391       .  A
C2255      H2260   1.084       .  S
C2256      C2257   1.406       .  A
C2256      H2261   1.083       .  S
C2257      C2258   1.410       .  A
C2258      H2262   1.083       .  S
C2259      C2264   1.403       .  A
C2259      C2268   1.406       .  A
C2264      C2265   1.393       .  A
C2264      H2269   1.084       .  S
C2265      C2266   1.405       .  A
C2265      H2270   1.084       .  S
C2266      C2267   1.407       .  A
C2267      C2268   1.405       .  A
C2267      H2271   1.083       .  S
C2268      H2272   1.083       .  S
C2273      C2274   1.405       .  A
C2273      C2278   1.400       .  A
C2273      H2283   1.083       .  S
C2274      C2275   1.402   1_556  A
C2274      C2279   1.476       .  S
C2275      C2276   1.393       .  A
C2275      H2280   1.083       .  S
C2276      C2277   1.403   1_554  A
C2276      H2281   1.083       .  S
C2277      C2278   1.404       .  A
C2278      H2282   1.083       .  S
C2279      C2284   1.402       .  A
C2279      C2288   1.403   1_556  A
C2284      C2285   1.394       .  A
C2284      H2289   1.083       .  S
C2285      C2286   1.407       .  A
C2285      H2290   1.083       .  S
C2286      C2287   1.408   1_556  A
C2287      C2288   1.398       .  A
C2287      H2291   1.083       .  S
C2288      H2292   1.083       .  S
