geometry optimzed in LAMMPS
_audit_creation_date              2020-12-01 
_audit_creation_method            'lammps2cif' 
_symmetry_space_group_name_H-M    'P1' 
_symmetry_Int_Tables_number       1 
_symmetry_cell_setting            triclinic 
loop_ 
_symmetry_equiv_pos_as_xyz 
  x,y,z 
_cell_length_a                    86.6593228 
_cell_length_b                    86.7279620019811 
_cell_length_c                    86.68420677541006 
_cell_angle_alpha                 89.95499287016175 
_cell_angle_beta                  90.06549096188775 
_cell_angle_gamma                 89.9604023977533 
loop_ 
_atom_site_label 
_atom_site_type_symbol 
_atom_site_fract_x 
_atom_site_fract_y 
_atom_site_fract_z 
_atom_site_charge 
In1        In  0.84866193  0.58739736  0.01176904     1.36900
C2          C  0.85257898  0.57479848  0.03941829     0.77600
O3          O  0.83861237  0.56441711  0.00540572    -0.60900
O4          O  0.85975763  0.57113407  0.99493646    -0.51800
C5          C  0.82510633  0.60147932  0.99729133     0.70200
O6          O  0.82372370  0.59554278  0.01054406    -0.46600
C7          C  0.87119547  0.60789055  0.01570900     0.74900
O8          O  0.84182204  0.58438726  0.03690881    -0.58500
O9          O  0.87157387  0.59775234  0.00527556    -0.48600
O10         O  0.86078862  0.57170414  0.02788605    -0.54900
C11         C  0.84969689  0.56073357  0.99671992     0.85100
O12         O  0.83857932  0.60064675  0.99187046    -0.56800
O13         O  0.85883807  0.60831453  0.02336324    -0.60100
In14       In  0.85386821  0.42450562  0.94334105     1.36900
C15         C  0.85813754  0.43560796  0.91526017     0.77600
O16         O  0.84339186  0.44707528  0.94995075    -0.60900
O17         O  0.86635586  0.44236795  0.95749946    -0.51800
C18         C  0.83267469  0.41000144  0.96004509     0.70200
O19         O  0.82991919  0.41465740  0.94644857    -0.46600
C20         C  0.87286687  0.40088464  0.93884850     0.74900
O21         O  0.84495457  0.43086187  0.91952231    -0.58500
O22         O  0.87505626  0.41083553  0.94932431    -0.48600
O23         O  0.86859155  0.43478796  0.92534474    -0.54900
C24         C  0.85527282  0.45185273  0.95686334     0.85100
O25         O  0.84606978  0.41292338  0.96494425    -0.56800
O26         O  0.86054181  0.40278083  0.93129231    -0.60100
In27       In  0.79757660  0.83411355  0.89258376     1.36900
C28         C  0.82554061  0.82278389  0.88773705     0.77600
O29         O  0.79250882  0.81127052  0.90316669    -0.60900
O30         O  0.78116931  0.81701172  0.88208290    -0.51800
C31         C  0.78248194  0.84827111  0.91544693     0.70200
O32         O  0.79589504  0.84271607  0.91709987    -0.46600
C33         C  0.80158308  0.85603145  0.87168964     0.74900
O34         O  0.82257075  0.83078732  0.89960379    -0.58500
O35         O  0.79210544  0.84511175  0.86971726    -0.48600
O36         O  0.81425990  0.82044616  0.87889858    -0.54900
C37         C  0.78367621  0.80698270  0.89240912     0.85100
O38         O  0.77695214  0.84659855  0.90206970    -0.56800
O39         O  0.80807045  0.85625427  0.88471810    -0.60100
In40       In  0.73597395  0.66891001  0.90192206     1.36900
C41         C  0.70724468  0.67778245  0.89562495     0.77600
O42         O  0.73842565  0.69387915  0.90825872    -0.60900
O43         O  0.75285521  0.68508934  0.89052863    -0.51800
C44         C  0.75066368  0.65619671  0.92617243     0.70200
O45         O  0.73649987  0.65970456  0.92663220    -0.46600
C46         C  0.73420728  0.64662766  0.88113815     0.74900
O47         O  0.71124987  0.67407858  0.90922149    -0.58500
O48         O  0.74428908  0.65711650  0.88058937    -0.48600
O49         O  0.71788347  0.67713929  0.88577224    -0.54900
C50         C  0.74850881  0.69668337  0.89815350     0.85100
O51         O  0.75703450  0.65923451  0.91348669    -0.56800
O52         O  0.72623497  0.64655780  0.89331111    -0.60100
In53       In  0.69783034  0.92144624  0.01160128     1.36900
C54         C  0.69412067  0.93323219  0.03955795     0.77600
O55         O  0.70943133  0.94409645  0.00775251    -0.60900
O56         O  0.68855424  0.93962667  0.99560555    -0.51800
C57         C  0.71840207  0.90653329  0.99403556     0.70200
O58         O  0.72127633  0.91027597  0.00788684    -0.46600
C59         C  0.67551441  0.90111751  0.01678845     0.74900
O60         O  0.70546875  0.92442835  0.03656659    -0.58500
O61         O  0.67409192  0.91204736  0.00720006    -0.48600
O62         O  0.68534616  0.93603729  0.02831124    -0.54900
C63         C  0.69912210  0.94922030  0.99877749     0.85100
O64         O  0.70506972  0.91024910  0.98948486    -0.56800
O65         O  0.68879692  0.89981629  0.02263486    -0.60100
In66       In  0.69013930  0.08689597  0.94806806     1.36900
C67         C  0.68166697  0.07348444  0.92203028     0.77600
O68         O  0.70481917  0.06633518  0.95264476    -0.60900
O69         O  0.68371884  0.06827572  0.96502365    -0.51800
C70         C  0.71303853  0.10322894  0.96004694     0.70200
O71         O  0.71335006  0.09851569  0.94620421    -0.46600
C72         C  0.66876242  0.10887412  0.94590878     0.74900
O73         O  0.69412186  0.08112594  0.92307218    -0.58500
O74         O  0.66885512  0.09915723  0.95686298    -0.48600
O75         O  0.67395333  0.07260209  0.93433623    -0.54900
C76         C  0.69554877  0.06018181  0.96202074     0.85100
O77         O  0.70096279  0.09976541  0.96742563    -0.56800
O78         O  0.67991101  0.10746477  0.93665692    -0.60100
In79       In  0.80322303  0.17009443  0.05348667     1.36900
C80         C  0.83046337  0.18157104  0.06180473     0.77600
O81         O  0.79952836  0.19160384  0.03989358    -0.60900
O82         O  0.78842664  0.18966903  0.06166535    -0.51800
C83         C  0.78894875  0.15453301  0.03113560     0.70200
O84         O  0.80320415  0.15781154  0.03035581    -0.46600
C85         C  0.80318447  0.14828775  0.07483870     0.74900
O86         O  0.82869209  0.17464796  0.04899516    -0.58500
O87         O  0.79304147  0.15881061  0.07445520    -0.48600
O88         O  0.81846870  0.18224117  0.06998854    -0.54900
C89         C  0.79145339  0.19809797  0.05011989     0.85100
O90         O  0.78231472  0.15940038  0.04313792    -0.56800
O91         O  0.81278196  0.14871060  0.06389050    -0.60100
In92       In  0.74911077  0.33854313  0.05818191     1.36900
C93         C  0.72114265  0.32762493  0.06339033     0.77600
O94         O  0.75171777  0.31595415  0.04628543    -0.60900
O95         O  0.76613115  0.32034962  0.06557169    -0.51800
C96         C  0.76393345  0.35467414  0.03646950     0.70200
O97         O  0.74988075  0.35088245  0.03518330    -0.46600
C98         C  0.74629835  0.35917353  0.08055328     0.74900
O99         O  0.72428073  0.33467243  0.05094622    -0.58500
O100        O  0.75593022  0.34821057  0.08138435    -0.48600
O101        O  0.73223004  0.32611183  0.07269739    -0.54900
C102        C  0.76194808  0.31084570  0.05530762     0.85100
O103        O  0.77020693  0.35019001  0.04882022    -0.56800
O104        O  0.73892613  0.35982321  0.06801782    -0.60100
In105      In  0.85282192  0.42660209  0.26150208     1.36900
C106        C  0.84054837  0.42493891  0.28969493     0.77600
O107        O  0.83045739  0.43694308  0.25362064    -0.60900
O108        O  0.83664507  0.41470695  0.24521001    -0.51800
C109        C  0.86791127  0.44780298  0.24468746     0.70200
O110        O  0.86159115  0.45104176  0.25744575    -0.46600
C111        C  0.87303072  0.40417188  0.26702902     0.74900
O112        O  0.85058073  0.43502095  0.28632642    -0.58500
O113        O  0.86192167  0.40261211  0.25771458    -0.48600
O114        O  0.83653199  0.41651789  0.27860614    -0.54900
C115        C  0.82660632  0.42527801  0.24579790     0.85100
O116        O  0.86689122  0.43377429  0.24103300    -0.56800
O117        O  0.87430219  0.41746382  0.27278720    -0.60100
In118      In  0.68906500  0.41993929  0.19617308     1.36900
C119        C  0.70068836  0.41627771  0.16828076     0.77600
O120        O  0.71124430  0.43124911  0.20263451    -0.60900
O121        O  0.70680517  0.40882096  0.21162958    -0.51800
C122        C  0.67333944  0.44158597  0.21154077     0.70200
O123        O  0.67980782  0.44408299  0.19871173    -0.46600
C124        C  0.66781614  0.39861827  0.19159102     0.74900
O125        O  0.69367835  0.42858226  0.17191881    -0.58500
O126        O  0.67790146  0.39747282  0.20211341    -0.48600
O127        O  0.70167331  0.40631818  0.17878995    -0.54900
C128        C  0.71617542  0.41990379  0.21027370     0.85100
O129        O  0.67491617  0.42789697  0.21617097    -0.56800
O130        O  0.66802307  0.41119190  0.18423360    -0.60100
In131      In  0.60205283  0.52878524  0.30349855     1.36900
C132        C  0.58785340  0.55524038  0.30891467     0.77600
O133        O  0.58134543  0.52409201  0.28910838    -0.60900
O134        O  0.58365132  0.51144806  0.31001607    -0.51800
C135        C  0.61859149  0.51580308  0.28152055     0.70200
O136        O  0.61478191  0.52988205  0.28093733    -0.46600
C137        C  0.62142778  0.53343933  0.32690599     0.74900
O138        O  0.59605438  0.55333915  0.29694877    -0.58500
O139        O  0.61128600  0.52291947  0.32723673    -0.48600
O140        O  0.58698970  0.54351278  0.31741870    -0.54900
C141        C  0.57526836  0.51476387  0.29846553     0.85100
O142        O  0.61462808  0.50873054  0.29363524    -0.56800
O143        O  0.62254361  0.54043304  0.31418254    -0.60100
In144      In  0.43550289  0.47062463  0.30363893     1.36900
C145        C  0.44739078  0.44302242  0.30928579     0.77600
O146        O  0.45801035  0.47315963  0.29165896    -0.60900
O147        O  0.45335625  0.48814937  0.31045112    -0.51800
C148        C  0.42029349  0.48622054  0.28175694     0.70200
O149        O  0.42426973  0.47225976  0.27996143    -0.46600
C150        C  0.41590212  0.46796097  0.32686037     0.74900
O151        O  0.43815146  0.44513629  0.29807969    -0.58500
O152        O  0.42739993  0.47692129  0.32734782    -0.48600
O153        O  0.45047968  0.45490050  0.31703875    -0.54900
C154        C  0.46297154  0.48369689  0.30039921     0.85100
O155        O  0.42369758  0.49173082  0.29478144    -0.56800
O156        O  0.41379386  0.46128143  0.31410037    -0.60100
In157      In  0.93851725  0.53291412  0.14616114     1.36900
C158        C  0.94951375  0.56103798  0.14158118     0.77600
O159        O  0.96151665  0.52813197  0.15696954    -0.60900
O160        O  0.95695951  0.51821936  0.13500660    -0.51800
C161        C  0.92417474  0.51706086  0.16861255     0.70200
O162        O  0.92825194  0.53099477  0.17020083    -0.46600
C163        C  0.91581421  0.53568030  0.12572727     0.74900
O164        O  0.94286962  0.55748104  0.15412060    -0.58500
O165        O  0.92659026  0.52594132  0.12416316    -0.48600
O166        O  0.95015479  0.55043257  0.13169594    -0.54900
C167        C  0.96658657  0.52030380  0.14579821     0.85100
O168        O  0.92751733  0.51141620  0.15561800    -0.56800
O169        O  0.91640301  0.54340979  0.13803858    -0.60100
In170      In  0.10506114  0.47041468  0.14920746     1.36900
C171        C  0.09580982  0.44161946  0.14557217     0.77600
O172        O  0.08169902  0.47458182  0.15968812    -0.60900
O173        O  0.08679945  0.48530254  0.13821894    -0.51800
C174        C  0.11980106  0.48621039  0.17112331     0.70200
O175        O  0.11579299  0.47231849  0.17298768    -0.46600
C176        C  0.12603514  0.46783992  0.12684873     0.74900
O177        O  0.10174812  0.44601711  0.15818791    -0.58500
O178        O  0.11522903  0.47763634  0.12650164    -0.48600
O179        O  0.09443312  0.45190718  0.13542635    -0.54900
C180        C  0.07696570  0.48280856  0.14865699     0.85100
O181        O  0.11606776  0.49187054  0.15825313    -0.56800
O182        O  0.12694308  0.46039790  0.13933649    -0.60100
In183      In  0.35700091  0.58619168  0.19536553     1.36900
C184        C  0.34430187  0.59613963  0.16941844     0.77600
O185        O  0.33566355  0.57247117  0.19869505    -0.60900
O186        O  0.33795030  0.59318291  0.21141813    -0.51800
C187        C  0.37034519  0.56216101  0.20899934     0.70200
O188        O  0.36730474  0.56215233  0.19465985    -0.46600
C189        C  0.37933013  0.60693734  0.19433943     0.74900
O190        O  0.35224440  0.58380572  0.16976701    -0.58500
O191        O  0.36904699  0.60714843  0.20473762    -0.48600
O192        O  0.34304978  0.60304723  0.18214640    -0.54900
C193        C  0.32951002  0.58169580  0.20811499     0.85100
O194        O  0.36738968  0.57468742  0.21583393    -0.56800
O195        O  0.37873022  0.59543832  0.18541636    -0.60100
In196      In  0.19119730  0.57946132  0.25946466     1.36900
C197        C  0.20211443  0.58218060  0.28790165     0.77600
O198        O  0.21236623  0.56616340  0.25287500    -0.60900
O199        O  0.21067617  0.58928264  0.24533792    -0.51800
C200        C  0.17551649  0.55827892  0.24369259     0.70200
O201        O  0.17922036  0.55638662  0.25769875    -0.46600
C202        C  0.17016318  0.60195397  0.26202778     0.74900
O203        O  0.19365669  0.57089856  0.28407830    -0.58500
O204        O  0.18105683  0.60247385  0.25232987    -0.48600
O205        O  0.20516800  0.59147094  0.27716809    -0.54900
C206        C  0.21880690  0.57716127  0.24586547     0.85100
O207        O  0.17984369  0.57094931  0.23799186    -0.56800
O208        O  0.16975960  0.58965700  0.26977769    -0.60100
In209      In  0.04916074  0.83719976  0.55726786     1.36900
C210        C  0.07841037  0.83874340  0.54836478     0.77600
O211        O  0.04527809  0.82485759  0.53482840    -0.60900
O212        O  0.03396643  0.84637248  0.53808338    -0.51800
C213        C  0.03220186  0.81626826  0.57216568     0.70200
O214        O  0.04601206  0.81376687  0.56820199    -0.46600
C215        C  0.05230247  0.86072279  0.57695636     0.74900
O216        O  0.07356735  0.82752064  0.55635347    -0.58500
O217        O  0.04417339  0.86161447  0.56485821    -0.48600
O218        O  0.06837220  0.84866060  0.54494710    -0.54900
C219        C  0.03668707  0.83515006  0.52918907     0.85100
O220        O  0.02725204  0.82954692  0.56883348    -0.56800
O221        O  0.05774675  0.84746804  0.57954869    -0.60100
In222      In  0.98497628  0.83079769  0.39149114     1.36900
C223        C  0.95741202  0.83603530  0.40339200     0.77600
O224        O  0.99017734  0.82002845  0.41435684    -0.60900
O225        O  0.00047682  0.84172389  0.40929352    -0.51800
C226        C  0.00114804  0.80790623  0.37815855     0.70200
O227        O  0.98769825  0.80583682  0.38350504    -0.46600
C228        C  0.98126313  0.85243517  0.36979518     0.74900
O229        O  0.95970024  0.82460860  0.39450708    -0.58500
O230        O  0.99215904  0.85271790  0.37953248    -0.48600
O231        O  0.96910733  0.84415136  0.40620626    -0.54900
C232        C  0.99846303  0.83103825  0.41905885     0.85100
O233        O  0.00564430  0.82170504  0.37901030    -0.56800
O234        O  0.97302806  0.84044721  0.37052464    -0.60100
In235      In  0.94175433  0.78708540  0.80977555     1.36900
C236        C  0.93579403  0.81466188  0.79808646     0.77600
O237        O  0.95646498  0.78254582  0.78908614    -0.60900
O238        O  0.93426048  0.77228911  0.78996003    -0.51800
C239        C  0.96182484  0.77103084  0.82667754     0.70200
O240        O  0.96410776  0.78509432  0.82330493    -0.46600
C241        C  0.91891485  0.78945818  0.82966084     0.74900
O242        O  0.94812439  0.81214837  0.80565722    -0.58500
O243        O  0.91860828  0.77986123  0.81864313    -0.48600
O244        O  0.92708171  0.80314039  0.79664065    -0.54900
C245        C  0.94641701  0.77455717  0.78219582     0.85100
O246        O  0.94922581  0.76562284  0.82173569    -0.56800
O247        O  0.93126597  0.79709694  0.83091064    -0.60100
In248      In  0.94056714  0.72567166  0.64357141     1.36900
C249        C  0.93806261  0.69666496  0.65333624     0.77600
O250        O  0.95506989  0.73091666  0.66425536    -0.60900
O251        O  0.93254514  0.74011172  0.66353269    -0.51800
C252        C  0.96094869  0.74221279  0.62738697     0.70200
O253        O  0.96337607  0.72828338  0.63106141    -0.46600
C254        C  0.91610239  0.72352251  0.62504029     0.74900
O255        O  0.94791404  0.70043016  0.64322426    -0.58500
O256        O  0.91610556  0.73207267  0.63685011    -0.48600
O257        O  0.93036744  0.70773888  0.65868449    -0.54900
C258        C  0.94490776  0.73869130  0.67118212     0.85100
O259        O  0.94812789  0.74740359  0.63193299    -0.56800
O260        O  0.92882695  0.71710156  0.62218227    -0.60100
In261      In  0.05391641  0.67542440  0.89096179     1.36900
C262        C  0.08293381  0.67265717  0.90005394     0.77600
O263        O  0.05122913  0.68488467  0.91478695    -0.60900
O264        O  0.03811741  0.66511016  0.90871869    -0.51800
C265        C  0.03641563  0.69767603  0.87881075     0.70200
O266        O  0.05047975  0.69977879  0.88214064    -0.46600
C267        C  0.05699190  0.65341557  0.86984643     0.74900
O268        O  0.07873810  0.68383678  0.89159555    -0.58500
O269        O  0.04924249  0.65156505  0.88203988    -0.48600
O270        O  0.07235155  0.66349141  0.90383959    -0.54900
C271        C  0.04185940  0.67462336  0.91912966     0.85100
O272        O  0.03163324  0.68417464  0.88130315    -0.56800
O273        O  0.06199839  0.66691604  0.86782488    -0.60100
In274      In  0.99648618  0.66809433  0.05894836     1.36900
C275        C  0.96907081  0.66113990  0.04692662     0.77600
O276        O  0.00064589  0.68006985  0.03665805    -0.60900
O277        O  0.01245951  0.65888929  0.04046359    -0.51800
C278        C  0.01101793  0.69035495  0.07429645     0.70200
O279        O  0.99706433  0.69161438  0.07005476    -0.46600
C280        C  0.99320506  0.64794674  0.08161146     0.74900
O281        O  0.97200674  0.67451474  0.05212109    -0.58500
O282        O  0.00308917  0.64611815  0.07097398    -0.48600
O283        O  0.98005427  0.65173121  0.04834432    -0.54900
C284        C  0.00925335  0.66971555  0.03115117     0.85100
O285        O  0.01735176  0.67780077  0.07047296    -0.56800
O286        O  0.98591651  0.66056588  0.08116442    -0.60100
In287      In  0.10231719  0.77817200  0.14705570     1.36900
C288        C  0.10862396  0.80622772  0.15732738     0.77600
O289        O  0.09163444  0.77645078  0.16998299    -0.60900
O290        O  0.10882333  0.75995706  0.16433231    -0.51800
C291        C  0.07898592  0.76272207  0.13449151     0.70200
O292        O  0.07780629  0.77679195  0.13827336    -0.46600
C293        C  0.12357624  0.78022109  0.12529293     0.74900
O294        O  0.09695318  0.80364564  0.14884677    -0.58500
O295        O  0.12552219  0.77204420  0.13725498    -0.48600
O296        O  0.11658407  0.79450621  0.16069013    -0.54900
C297        C  0.09911495  0.76469584  0.17417550     0.85100
O298        O  0.09218650  0.75698057  0.13667029    -0.56800
O299        O  0.11034042  0.78617382  0.12403826    -0.60100
In300      In  0.09822065  0.71827851  0.31249808     1.36900
C301        C  0.10706701  0.69161204  0.30026062     0.77600
O302        O  0.08394991  0.72183709  0.29145265    -0.60900
O303        O  0.10518622  0.73398425  0.29319257    -0.51800
C304        C  0.07587554  0.73343027  0.32727540     0.70200
O305        O  0.07481769  0.71912620  0.32426585    -0.46600
C306        C  0.11895587  0.71591828  0.33501099     0.74900
O307        O  0.09463242  0.69275681  0.30797940    -0.58500
O308        O  0.11971924  0.72641097  0.32481634    -0.48600
O309        O  0.11446015  0.70404537  0.29862138    -0.54900
C310        C  0.09335426  0.73096098  0.28507827     0.85100
O311        O  0.08842401  0.73958737  0.32313349    -0.56800
O312        O  0.10719297  0.70742300  0.33382248    -0.60100
In313      In  0.35398370  0.58930977  0.50524066     1.36900
C314        C  0.36212698  0.57600070  0.53141713     0.77600
O315        O  0.34295509  0.56639341  0.50253821    -0.60900
O316        O  0.36063008  0.57226388  0.48676506    -0.51800
C317        C  0.33046874  0.60424626  0.49208005     0.70200
O318        O  0.33004443  0.60000063  0.50607298    -0.46600
C319        C  0.37529118  0.61098885  0.50855702     0.74900
O320        O  0.34940360  0.58320994  0.53014560    -0.58500
O321        O  0.37602018  0.60097044  0.49794170    -0.48600
O322        O  0.37039031  0.57588138  0.51943537    -0.54900
C323        C  0.35123817  0.56206632  0.49139348     0.85100
O324        O  0.34295045  0.60116719  0.48526110    -0.56800
O325        O  0.36320013  0.61034574  0.51664164    -0.60100
In326      In  0.35422180  0.42098152  0.44898996     1.36900
C327        C  0.36092843  0.43313567  0.42201208     0.77600
O328        O  0.34104607  0.44233573  0.45414976    -0.60900
O329        O  0.36383840  0.44069140  0.46309603    -0.51800
C330        C  0.33277780  0.40663159  0.46520290     0.70200
O331        O  0.33068528  0.41024799  0.45114698    -0.46600
C332        C  0.37298218  0.39682162  0.44520648     0.74900
O333        O  0.34802570  0.42655151  0.42437007    -0.58500
O334        O  0.37471680  0.40661823  0.45595027    -0.48600
O335        O  0.37004546  0.43330598  0.43338992    -0.54900
C336        C  0.35187372  0.44899030  0.46127321     0.85100
O337        O  0.34568907  0.41059660  0.47072539    -0.56800
O338        O  0.36132253  0.39939531  0.43683571    -0.60100
In339      In  0.18895387  0.91659869  0.50243865     1.36900
C340        C  0.18595590  0.92746939  0.53087823     0.77600
O341        O  0.19940836  0.93954823  0.49652710    -0.60900
O342        O  0.17657148  0.93489551  0.48882420    -0.51800
C343        C  0.21059797  0.90242625  0.48562666     0.70200
O344        O  0.21276344  0.90611108  0.49959446    -0.46600
C345        C  0.16806470  0.89439341  0.50592725     0.74900
O346        O  0.19850780  0.92138372  0.52645394    -0.58500
O347        O  0.16685266  0.90474167  0.49570355    -0.48600
O348        O  0.17536978  0.92772040  0.52094028    -0.54900
C349        C  0.18741014  0.94457540  0.48997464     0.85100
O350        O  0.19739278  0.90585485  0.48053654    -0.56800
O351        O  0.18044337  0.89496718  0.51359646    -0.60100
In352      In  0.18466486  0.08634936  0.45412964     1.36900
C353        C  0.18071798  0.07687565  0.42525153     0.77600
O354        O  0.19596187  0.06349359  0.45810029    -0.60900
O355        O  0.17348928  0.06704469  0.46735174    -0.51800
C356        C  0.20671337  0.09972103  0.47140479     0.70200
O357        O  0.20873055  0.09591407  0.45745475    -0.46600
C358        C  0.16307528  0.10785620  0.45216070     0.74900
O359        O  0.19344902  0.08263299  0.42961292    -0.58500
O360        O  0.16190202  0.09643035  0.46117809    -0.48600
O361        O  0.17036905  0.07654838  0.43538928    -0.54900
C362        C  0.18451557  0.05780287  0.46499325     0.85100
O363        O  0.19322536  0.09701681  0.47615980    -0.56800
O364        O  0.17584548  0.10888496  0.44518497    -0.60100
In365      In  0.29814197  0.83306106  0.38982512     1.36900
C366        C  0.32577479  0.82118394  0.38481779     0.77600
O367        O  0.29203998  0.80981361  0.39916471    -0.60900
O368        O  0.28137180  0.81707005  0.37826450    -0.51800
C369        C  0.28257754  0.84750825  0.41204677     0.70200
O370        O  0.29559047  0.84131455  0.41453248    -0.46600
C371        C  0.30326380  0.85553513  0.36985080     0.74900
O372        O  0.32270368  0.82810611  0.39734060    -0.58500
O373        O  0.29292586  0.84545581  0.36771828    -0.48600
O374        O  0.31474869  0.82016619  0.37540705    -0.54900
C375        C  0.28332527  0.80637498  0.38800302     0.85100
O376        O  0.27796398  0.84645115  0.39829406    -0.56800
O377        O  0.31016820  0.85456936  0.38264439    -0.60100
In378      In  0.23906557  0.66797646  0.39650341     1.36900
C379        C  0.20970112  0.67604057  0.39257391     0.77600
O380        O  0.24127157  0.69327377  0.40123615    -0.60900
O381        O  0.25467982  0.68395628  0.38300436    -0.51800
C382        C  0.25568283  0.65730417  0.42051646     0.70200
O383        O  0.24152668  0.66065265  0.42158725    -0.46600
C384        C  0.23617851  0.64419233  0.37742126     0.74900
O385        O  0.21506590  0.67325771  0.40590557    -0.58500
O386        O  0.24515029  0.65536225  0.37480760    -0.48600
O387        O  0.21931914  0.67477275  0.38178847    -0.54900
C388        C  0.25050023  0.69583330  0.39030043     0.85100
O389        O  0.26117136  0.65947062  0.40723505    -0.56800
O390        O  0.22987427  0.64445688  0.39053830    -0.60100
In391      In  0.30176908  0.16697312  0.56262820     1.36900
C392        C  0.32981240  0.17728802  0.56809230     0.77600
O393        O  0.29931126  0.18991210  0.55106190    -0.60900
O394        O  0.28667057  0.18601565  0.57175543    -0.51800
C395        C  0.28469347  0.15230239  0.54158457     0.70200
O396        O  0.29883542  0.15531928  0.53935315    -0.46600
C397        C  0.30620795  0.14523174  0.58363586     0.74900
O398        O  0.32649323  0.17087552  0.55532633    -0.58500
O399        O  0.29654738  0.15604848  0.58560421    -0.48600
O400        O  0.31884814  0.17850632  0.57755069    -0.54900
C401        C  0.29059164  0.19549212  0.56131781     0.85100
O402        O  0.27956746  0.15673364  0.55447969    -0.56800
O403        O  0.31241045  0.14495206  0.57047038    -0.60100
In404      In  0.24666420  0.33634194  0.56147853     1.36900
C405        C  0.21768877  0.32763624  0.56654493     0.77600
O406        O  0.24864249  0.31237788  0.55166987    -0.60900
O407        O  0.26348170  0.31830792  0.57022064    -0.51800
C408        C  0.26123572  0.35167837  0.53888457     0.70200
O409        O  0.24722691  0.34774970  0.53778214    -0.46600
C410        C  0.24530270  0.35682868  0.58437143     0.74900
O411        O  0.22191211  0.33282943  0.55353751    -0.58500
O412        O  0.25446148  0.34547269  0.58448997    -0.48600
O413        O  0.22823485  0.32683203  0.57651917    -0.54900
C414        C  0.25888164  0.30798698  0.56103849     0.85100
O415        O  0.26760440  0.34754818  0.55128764    -0.56800
O416        O  0.23795618  0.35844645  0.57189101    -0.60100
In417      In  0.49412663  0.67164479  0.55945360     1.36900
C418        C  0.46514274  0.66842612  0.55001876     0.77600
O419        O  0.49985285  0.68012387  0.53572848    -0.60900
O420        O  0.50712503  0.65754666  0.54197273    -0.51800
C421        C  0.51001044  0.69443448  0.57282287     0.70200
O422        O  0.49588228  0.69566856  0.56937883    -0.46600
C423        C  0.49236876  0.65175725  0.58256726     0.74900
O424        O  0.47067758  0.68160050  0.55299289    -0.58500
O425        O  0.50208124  0.65038174  0.57178582    -0.48600
O426        O  0.47425859  0.65734103  0.55211491    -0.54900
C427        C  0.50606762  0.66766688  0.53157047     0.85100
O428        O  0.51588452  0.68165264  0.56915685    -0.56800
O429        O  0.48440580  0.66394649  0.58206500    -0.60100
In430      In  0.54851278  0.66681449  0.39279270     1.36900
C431        C  0.57647258  0.66655691  0.40547001     0.77600
O432        O  0.54019801  0.67691232  0.41502681    -0.60900
O433        O  0.53368560  0.65385851  0.40969664    -0.51800
C434        C  0.53136054  0.68789950  0.37809599     0.70200
O435        O  0.54447689  0.69092234  0.38374237    -0.46600
C436        C  0.55475466  0.64592986  0.37125703     0.74900
O437        O  0.57225125  0.67735602  0.39657490    -0.58500
O438        O  0.54519341  0.64344984  0.38196486    -0.48600
O439        O  0.56646398  0.65633786  0.40781491    -0.54900
C440        C  0.53361596  0.66471014  0.41943681     0.85100
O441        O  0.52724975  0.67404531  0.37979473    -0.56800
O442        O  0.56055041  0.65925207  0.37116151    -0.60100
In443      In  0.59994276  0.72269607  0.81044415     1.36900
C444        C  0.60392694  0.69485352  0.79853062     0.77600
O445        O  0.59015986  0.73056282  0.78788659    -0.60900
O446        O  0.61306880  0.73740324  0.79346090    -0.51800
C447        C  0.57705424  0.73802858  0.82445557     0.70200
O448        O  0.57502577  0.72512243  0.81794523    -0.46600
C449        C  0.61958957  0.71827555  0.83362710     0.74900
O450        O  0.59172903  0.69824887  0.80585123    -0.58500
O451        O  0.62079414  0.72948304  0.82434798    -0.48600
O452        O  0.61360344  0.70560148  0.79731494    -0.54900
C453        C  0.60229300  0.73734959  0.78360945     0.85100
O454        O  0.59078582  0.74279016  0.82383980    -0.56800
O455        O  0.60792242  0.70990269  0.83131411    -0.60100
In456      In  0.60264142  0.78347349  0.64392890     1.36900
C457        C  0.60685625  0.81256628  0.65209946     0.77600
O458        O  0.59190620  0.77924176  0.66708375    -0.60900
O459        O  0.61401376  0.76954403  0.66284492    -0.51800
C460        C  0.58040289  0.76710258  0.63048064     0.70200
O461        O  0.57860048  0.78107730  0.63426094    -0.46600
C462        C  0.62283236  0.78533700  0.62101820     0.74900
O463        O  0.59369294  0.80775050  0.64796053    -0.58500
O464        O  0.62521082  0.77705124  0.63282929    -0.48600
O465        O  0.61738374  0.80258519  0.65210894    -0.54900
C466        C  0.60316987  0.77169971  0.67235785     0.85100
O467        O  0.59361203  0.76175037  0.63353201    -0.56800
O468        O  0.60970443  0.79165062  0.62049404    -0.60100
In469      In  0.43930771  0.77862713  0.30623282     1.36900
C470        C  0.43541354  0.80724017  0.29605719     0.77600
O471        O  0.45052491  0.77482543  0.28321086    -0.60900
O472        O  0.42859373  0.76454851  0.28735200    -0.51800
C473        C  0.46017583  0.76152458  0.32133586     0.70200
O474        O  0.46219016  0.77575665  0.31871018    -0.46600
C475        C  0.41730058  0.78168036  0.32716502     0.74900
O476        O  0.44810847  0.80305467  0.30208013    -0.58500
O477        O  0.41610659  0.77250296  0.31589076    -0.48600
O478        O  0.42522651  0.79695566  0.29541308    -0.54900
C479        C  0.43925540  0.76733894  0.27780048     0.85100
O480        O  0.44766306  0.75620112  0.31613011    -0.56800
O481        O  0.43026174  0.78819953  0.32842166    -0.60100
In482      In  0.44260117  0.72359744  0.13860616     1.36900
C483        C  0.43686081  0.69599908  0.15050012     0.77600
O484        O  0.45192900  0.73057264  0.16166875    -0.60900
O485        O  0.42950978  0.73842623  0.15538640    -0.51800
C486        C  0.46568058  0.73867246  0.12497532     0.70200
O487        O  0.46725421  0.72497966  0.12984671    -0.46600
C488        C  0.42328044  0.72034494  0.11488346     0.74900
O489        O  0.45027425  0.69956276  0.14583371    -0.58500
O490        O  0.42238060  0.73126364  0.12448914    -0.48600
O491        O  0.42682459  0.70637606  0.14892837    -0.54900
C492        C  0.43987139  0.73768376  0.16562627     0.85100
O493        O  0.45246954  0.74438415  0.12707261    -0.56800
O494        O  0.43482232  0.71169834  0.11702475    -0.60100
In495      In  0.48579659  0.82833467  0.89586933     1.36900
C496        C  0.45916859  0.83537271  0.90885283     0.77600
O497        O  0.48917889  0.81698456  0.91869168    -0.60900
O498        O  0.50401443  0.83557111  0.91269393    -0.51800
C499        C  0.50098424  0.80615705  0.88094489     0.70200
O500        O  0.48686733  0.80471881  0.88456696    -0.46600
C501        C  0.48181676  0.84992806  0.87465107     0.74900
O502        O  0.46071941  0.82297850  0.90116662    -0.58500
O503        O  0.49140809  0.85144219  0.88558001    -0.48600
O504        O  0.47109264  0.84362387  0.90984060    -0.54900
C505        C  0.50001346  0.82582092  0.92282398     0.85100
O506        O  0.50690765  0.81891934  0.88463981    -0.56800
O507        O  0.47517473  0.83698684  0.87406338    -0.60100
In508      In  0.55299224  0.83605277  0.05924960     1.36900
C509        C  0.58094074  0.84257552  0.04911295     0.77600
O510        O  0.55045445  0.82078273  0.03858108    -0.60900
O511        O  0.53679632  0.84111695  0.03972130    -0.51800
C512        C  0.53845038  0.81490020  0.07591673     0.70200
O513        O  0.55284321  0.81426889  0.07341000    -0.46600
C514        C  0.55372249  0.85970048  0.07865561     0.74900
O515        O  0.57843961  0.83075419  0.05737372    -0.58500
O516        O  0.54532614  0.85979678  0.06667546    -0.48600
O517        O  0.56911023  0.85027420  0.04561053    -0.54900
C518        C  0.54051134  0.82923408  0.03206768     0.85100
O519        O  0.53180208  0.82646484  0.07004418    -0.56800
O520        O  0.56070138  0.84717359  0.08112046    -0.60100
In521      In  0.23433458  0.83945828  0.05726371     1.36900
C522        C  0.20758138  0.82587100  0.06232171     0.77600
O523        O  0.24047996  0.81672350  0.04697968    -0.60900
O524        O  0.25238313  0.82367249  0.06724354    -0.51800
C525        C  0.24933300  0.85453221  0.03502268     0.70200
O526        O  0.23602922  0.84889869  0.03277599    -0.46600
C527        C  0.22960807  0.86088017  0.07854683     0.74900
O528        O  0.20977482  0.83387198  0.05025007    -0.58500
O529        O  0.24017645  0.85087976  0.07963913    -0.48600
O530        O  0.21896105  0.82484241  0.07131313    -0.54900
C531        C  0.25026030  0.81328531  0.05722529     0.85100
O532        O  0.25428394  0.85293729  0.04859725    -0.56800
O533        O  0.22197948  0.86032570  0.06614113    -0.60100
In534      In  0.30029391  0.67480029  0.05674582     1.36900
C535        C  0.32965297  0.68249478  0.06093737     0.77600
O536        O  0.29801358  0.69862807  0.04666548    -0.60900
O537        O  0.28487339  0.69335015  0.06658675    -0.51800
C538        C  0.28609570  0.65975736  0.03377869     0.70200
O539        O  0.30013038  0.66358734  0.03320127    -0.46600
C540        C  0.30044703  0.65433967  0.07966626     0.74900
O541        O  0.32503636  0.67685642  0.04828937    -0.58500
O542        O  0.29135227  0.66571795  0.07938814    -0.48600
O543        O  0.31927374  0.68442539  0.07090138    -0.54900
C544        C  0.28888627  0.70344435  0.05690603     0.85100
O545        O  0.27936475  0.66381427  0.04600043    -0.56800
O546        O  0.30850805  0.65282372  0.06766195    -0.60100
In547      In  0.35089720  0.92042267  0.95187895     1.36900
C548        C  0.35677954  0.92805917  0.92309898     0.77600
O549        O  0.34171041  0.94447420  0.95224926    -0.60900
O550        O  0.35986918  0.93904606  0.96776803    -0.51800
C551        C  0.32697373  0.90784443  0.96681786     0.70200
O552        O  0.32634145  0.91157375  0.95272626    -0.46600
C553        C  0.37262662  0.89890135  0.95056719     0.74900
O554        O  0.34450309  0.92093038  0.92659875    -0.58500
O555        O  0.37375474  0.91051459  0.95931967    -0.48600
O556        O  0.36551653  0.93136137  0.93422089    -0.54900
C557        C  0.35097018  0.94931412  0.96238880     0.85100
O558        O  0.33982964  0.91050098  0.97312902    -0.56800
O559        O  0.35982271  0.89767775  0.94376749    -0.60100
In560      In  0.35474952  0.09127872  0.00348444     1.36900
C561        C  0.36077221  0.08101530  0.03165618     0.77600
O562        O  0.34259283  0.06849704  0.00113472    -0.60900
O563        O  0.36288667  0.07188853  0.98797841    -0.51800
C564        C  0.33255468  0.10721757  0.98874707     0.70200
O565        O  0.33126282  0.10307288  0.00269917    -0.46600
C566        C  0.37764235  0.11171459  0.00626192     0.74900
O567        O  0.34795312  0.08736250  0.02841337    -0.58500
O568        O  0.37787341  0.10104408  0.99626764    -0.48600
O569        O  0.37002136  0.08010050  0.02050917    -0.54900
C570        C  0.35235286  0.06263520  0.99208417     0.85100
O571        O  0.34511223  0.10322655  0.98252874    -0.56800
O572        O  0.36514290  0.11263058  0.01369433    -0.60100
In573      In  0.24776720  0.17543270  0.88927390     1.36900
C574        C  0.22004110  0.18821162  0.88611696     0.77600
O575        O  0.25541416  0.19795647  0.89947027    -0.60900
O576        O  0.26208978  0.19298216  0.87641662    -0.51800
C577        C  0.26202103  0.15964652  0.91186726     0.70200
O578        O  0.24786967  0.16321039  0.91243116    -0.46600
C579        C  0.24362097  0.15329545  0.86832665     0.74900
O580        O  0.22500884  0.18401523  0.89922328    -0.58500
O581        O  0.25489663  0.16255338  0.86777136    -0.48600
O582        O  0.22909244  0.18569669  0.87506752    -0.54900
C583        C  0.26178324  0.20268015  0.88728698     0.85100
O584        O  0.26871281  0.16412396  0.89974287    -0.56800
O585        O  0.23519868  0.15492784  0.88007838    -0.60100
In586      In  0.30107117  0.34334394  0.89267161     1.36900
C587        C  0.32936345  0.33218630  0.88911827     0.77600
O588        O  0.29443414  0.32025072  0.90213665    -0.60900
O589        O  0.28752571  0.32570026  0.87920979    -0.51800
C590        C  0.28440336  0.35724405  0.91473409     0.70200
O591        O  0.29783486  0.35201148  0.91721544    -0.46600
C592        C  0.30504994  0.36676567  0.87317063     0.74900
O593        O  0.32511717  0.33802724  0.90184836    -0.58500
O594        O  0.29421247  0.35710055  0.87171922    -0.48600
O595        O  0.31930568  0.33227442  0.87863329    -0.54900
C596        C  0.28829246  0.31566271  0.88977044     0.85100
O597        O  0.27980533  0.35530791  0.90106612    -0.56800
O598        O  0.31327424  0.36465493  0.88501454    -0.60100
In599      In  0.19511233  0.59243410  0.94140013     1.36900
C600        C  0.18884506  0.57688263  0.91595123     0.77600
O601        O  0.20767304  0.57198715  0.94997587    -0.60900
O602        O  0.18459591  0.57522925  0.95747155    -0.51800
C603        C  0.21701514  0.60828992  0.95582632     0.70200
O604        O  0.21917854  0.60240411  0.94259927    -0.46600
C605        C  0.17466139  0.61388191  0.93505716     0.74900
O606        O  0.20124589  0.58461814  0.91723275    -0.58500
O607        O  0.17328929  0.60501113  0.94659880    -0.48600
O608        O  0.18018332  0.57716643  0.92758897    -0.54900
C609        C  0.19626247  0.56643053  0.95707579     0.85100
O610        O  0.20362756  0.60630080  0.96125670    -0.56800
O611        O  0.18704161  0.61244657  0.92750624    -0.60100
In612      In  0.18825433  0.42651923  0.00234088     1.36900
C613        C  0.18214700  0.43465189  0.03111660     0.77600
O614        O  0.19788424  0.45020773  0.00264510    -0.60900
O615        O  0.18158850  0.44489189  0.98525554    -0.51800
C616        C  0.21147069  0.41356637  0.98670733     0.70200
O617        O  0.21215804  0.41594011  0.00111458    -0.46600
C618        C  0.16612870  0.40548483  0.00349420     0.74900
O619        O  0.19459870  0.42771657  0.02772390    -0.58500
O620        O  0.16450336  0.41796489  0.99609494    -0.48600
O621        O  0.17338670  0.43757254  0.01988343    -0.54900
C622        C  0.19022368  0.45502355  0.99124573     0.85100
O623        O  0.19898931  0.41777576  0.98048729    -0.56800
O624        O  0.17948912  0.40322601  0.00882193    -0.60100
In625      In  0.93870635  0.03434891  0.64580748     1.36900
C626        C  0.94966016  0.06263832  0.64283866     0.77600
O627        O  0.96068981  0.02896467  0.65818589    -0.60900
O628        O  0.95840573  0.02074044  0.63534357    -0.51800
C629        C  0.92319417  0.01876075  0.66735481     0.70200
O630        O  0.92658179  0.03287598  0.66876848    -0.46600
C631        C  0.91734836  0.03843742  0.62415386     0.74900
O632        O  0.94329018  0.05827045  0.65525198    -0.58500
O633        O  0.92798893  0.02850258  0.62271850    -0.48600
O634        O  0.95016672  0.05258972  0.63238660    -0.54900
C635        C  0.96715233  0.02241701  0.64693981     0.85100
O636        O  0.92766561  0.01272369  0.65485665    -0.56800
O637        O  0.91718186  0.04532178  0.63696138    -0.60100
In638      In  0.10748533  0.97845085  0.64039917     1.36900
C639        C  0.09361279  0.95178507  0.63511759     0.77600
O640        O  0.08699137  0.98493075  0.65432478    -0.60900
O641        O  0.08844213  0.99363434  0.63155559    -0.51800
C642        C  0.12318665  0.99438542  0.66154220     0.70200
O643        O  0.11877679  0.98062274  0.66390398    -0.46600
C644        C  0.12871263  0.97353789  0.61882434     0.74900
O645        O  0.10218343  0.95366064  0.64689272    -0.58500
O646        O  0.11896599  0.98441483  0.61780086    -0.48600
O647        O  0.09216599  0.96348304  0.62660338    -0.54900
C648        C  0.08043968  0.99250458  0.64374838     0.85100
O649        O  0.11995579  0.99957708  0.64829474    -0.56800
O650        O  0.12798442  0.96592477  0.63123478    -0.60100
In651      In  0.85238859  0.92618327  0.75722352     1.36900
C652        C  0.84027590  0.92027332  0.78452345     0.77600
O653        O  0.82904998  0.93615705  0.75430182    -0.60900
O654        O  0.83555646  0.91835979  0.73894007    -0.51800
C655        C  0.86631118  0.94878484  0.74150483     0.70200
O656        O  0.86128936  0.95077693  0.75509995    -0.46600
C657        C  0.87379046  0.90487704  0.76196285     0.74900
O658        O  0.84843115  0.93226556  0.78234344    -0.58500
O659        O  0.86251586  0.90267808  0.75291916    -0.48600
O660        O  0.83834827  0.91189076  0.77281125    -0.54900
C661        C  0.82502478  0.92750742  0.74332707     0.85100
O662        O  0.86463058  0.93522788  0.73648799    -0.56800
O663        O  0.87468583  0.91828099  0.76756113    -0.60100
In664      In  0.68618534  0.92442890  0.69452372     1.36900
C665        C  0.69677459  0.91847851  0.66646625     0.77600
O666        O  0.70763693  0.93792234  0.69886250    -0.60900
O667        O  0.70588572  0.91531239  0.70832461    -0.51800
C668        C  0.67136684  0.94524404  0.71168307     0.70200
O669        O  0.67412262  0.94747460  0.69746805    -0.46600
C670        C  0.66461787  0.90295030  0.69183331     0.74900
O671        O  0.68910995  0.93067876  0.66926405    -0.58500
O672        O  0.67509811  0.90214783  0.70201699    -0.48600
O673        O  0.69929621  0.91003604  0.67804629    -0.54900
C674        C  0.71408756  0.92726327  0.70645627     0.85100
O675        O  0.67606677  0.93244690  0.71682526    -0.56800
O676        O  0.66488902  0.91513634  0.68387313    -0.60100
In677      In  0.60074968  0.03022016  0.80994095     1.36900
C678        C  0.59159139  0.05951397  0.81201109     0.77600
O679        O  0.57750936  0.02423251  0.80056876    -0.60900
O680        O  0.58373938  0.01528619  0.82260033    -0.51800
C681        C  0.61429948  0.01329670  0.78787922     0.70200
O682        O  0.60822130  0.02629632  0.78523813    -0.46600
C683        C  0.62190268  0.03405820  0.83148896     0.74900
O684        O  0.60007245  0.05498030  0.80103630    -0.58500
O685        O  0.61035053  0.02540129  0.83341082    -0.48600
O686        O  0.58751958  0.04910052  0.82123006    -0.54900
C687        C  0.57350044  0.01659815  0.81230033     0.85100
O688        O  0.61342896  0.00909650  0.80178705    -0.56800
O689        O  0.62332730  0.03958384  0.81811234    -0.60100
In690      In  0.43605365  0.96890684  0.80962208     1.36900
C691        C  0.44661291  0.94019620  0.81254446     0.77600
O692        O  0.45895202  0.97581928  0.80022571    -0.60900
O693        O  0.45253337  0.98412867  0.82249961    -0.51800
C694        C  0.42213005  0.98583158  0.78779775     0.70200
O695        O  0.42889613  0.97325268  0.78477441    -0.46600
C696        C  0.41526545  0.96382347  0.83118633     0.74900
O697        O  0.43743960  0.94381999  0.80172407    -0.58500
O698        O  0.42556388  0.97403734  0.83263963    -0.48600
O699        O  0.45076173  0.95126583  0.82091312    -0.54900
C700        C  0.46275131  0.98326558  0.81214871     0.85100
O701        O  0.42218133  0.98935003  0.80190512    -0.56800
O702        O  0.41488378  0.95730942  0.81819190    -0.60100
In703      In  0.35998326  0.08902385  0.70223946     1.36900
C704        C  0.35027996  0.09090616  0.67342809     0.77600
O705        O  0.33655944  0.07932281  0.70754171    -0.60900
O706        O  0.34146933  0.10213499  0.71501439    -0.51800
C707        C  0.37340104  0.06624255  0.71829170     0.70200
O708        O  0.36996105  0.06503005  0.70418323    -0.46600
C709        C  0.38234349  0.11001263  0.69941953     0.74900
O710        O  0.35727640  0.07903631  0.67826673    -0.58500
O711        O  0.37189829  0.11100700  0.70953576    -0.48600
O712        O  0.34840395  0.10143513  0.68320784    -0.54900
C713        C  0.33158589  0.09150109  0.71375276     0.85100
O714        O  0.36970085  0.07903485  0.72416269    -0.56800
O715        O  0.38182563  0.09782479  0.69154638    -0.60100
In716      In  0.18922164  0.09234275  0.75011359     1.36900
C717        C  0.19868598  0.09692349  0.77886864     0.77600
O718        O  0.21249579  0.08171877  0.74601632    -0.60900
O719        O  0.20801746  0.10367909  0.73607345    -0.51800
C720        C  0.17467100  0.07000513  0.73447820     0.70200
O721        O  0.17829394  0.06859471  0.74855718    -0.46600
C722        C  0.16715830  0.11363640  0.75257460     0.74900
O723        O  0.19393565  0.08380681  0.77447937    -0.58500
O724        O  0.17768273  0.11439684  0.74248258    -0.48600
O725        O  0.19851066  0.10724924  0.76866493    -0.54900
C726        C  0.21771121  0.09305619  0.73855900     0.85100
O727        O  0.17868654  0.08267915  0.72855497    -0.56800
O728        O  0.16731700  0.10131035  0.76033208    -0.60100
In729      In  0.73493597  0.83750033  0.55148495     1.36900
C730        C  0.70766465  0.82456185  0.55549447     0.77600
O731        O  0.73936030  0.81444362  0.54102273    -0.60900
O732        O  0.75165822  0.82019766  0.56141191    -0.51800
C733        C  0.75148841  0.85268827  0.53029557     0.70200
O734        O  0.73783391  0.84813285  0.52768154    -0.46600
C735        C  0.72919133  0.85856153  0.57294268     0.74900
O736        O  0.71052746  0.83228299  0.54335501    -0.58500
O737        O  0.73917182  0.84804570  0.57474138    -0.48600
O738        O  0.71856170  0.82383436  0.56509132    -0.54900
C739        C  0.74863373  0.81002665  0.55136819     0.85100
O740        O  0.75642756  0.84940770  0.54360012    -0.56800
O741        O  0.72303177  0.85897299  0.55973952    -0.60100
In742      In  0.79653469  0.67111282  0.55917932     1.36900
C743        C  0.82278433  0.68392130  0.56856535     0.77600
O744        O  0.79304765  0.69286499  0.54604717    -0.60900
O745        O  0.78040268  0.68997606  0.56694944    -0.51800
C746        C  0.78263185  0.65609410  0.53645607     0.70200
O747        O  0.79683421  0.65965799  0.53571997    -0.46600
C748        C  0.79772087  0.64770839  0.57894078     0.74900
O749        O  0.82138299  0.67818229  0.55513303    -0.58500
O750        O  0.78732608  0.65799698  0.57949888    -0.48600
O751        O  0.81097498  0.68241814  0.57693383    -0.54900
C752        C  0.78398419  0.69876148  0.55579890     0.85100
O753        O  0.77587461  0.66036877  0.54862122    -0.56800
O754        O  0.80711220  0.64932518  0.56789205    -0.60100
In755      In  0.68885359  0.58993523  0.44477258     1.36900
C756        C  0.67879612  0.57746339  0.41864030     0.77600
O757        O  0.70362846  0.56902436  0.44689224    -0.60900
O758        O  0.68315970  0.57039996  0.46056120    -0.51800
C759        C  0.71019629  0.60497517  0.46075057     0.70200
O760        O  0.71176662  0.60235437  0.44638355    -0.46600
C761        C  0.66791371  0.61200670  0.44377380     0.74900
O762        O  0.69173059  0.58443340  0.41930031    -0.58500
O763        O  0.66725892  0.60098031  0.45338869    -0.48600
O764        O  0.67138665  0.57728970  0.43117216    -0.54900
C765        C  0.69487680  0.56254706  0.45660176     0.85100
O766        O  0.69778925  0.59999517  0.46654865    -0.56800
O767        O  0.67983525  0.61214421  0.43533262    -0.60100
In768      In  0.69149077  0.42484147  0.50692585     1.36900
C769        C  0.68700914  0.43483986  0.53526370     0.77600
O770        O  0.70374856  0.44735741  0.50498618    -0.60900
O771        O  0.68406185  0.44378985  0.49082340    -0.51800
C772        C  0.71332204  0.40980495  0.49139531     0.70200
O773        O  0.71462858  0.41294521  0.50559127    -0.46600
C774        C  0.66874727  0.40422142  0.50951087     0.74900
O775        O  0.69870107  0.42672170  0.53183995    -0.58500
O776        O  0.66831165  0.41512926  0.49979564    -0.48600
O777        O  0.67809335  0.43797379  0.52417508    -0.54900
C778        C  0.69466774  0.45291843  0.49504551     0.85100
O779        O  0.70088614  0.41431203  0.48531245    -0.56800
O780        O  0.68120388  0.40353631  0.51699385    -0.60100
In781      In  0.84932228  0.92260305  0.44433753     1.36900
C782        C  0.85513521  0.93307807  0.41614010     0.77600
O783        O  0.83891116  0.94566893  0.44994023    -0.60900
O784        O  0.86142209  0.94081484  0.45846438    -0.51800
C785        C  0.82692507  0.90776823  0.45966844     0.70200
O786        O  0.82556450  0.91153293  0.44559621    -0.46600
C787        C  0.86940342  0.89954358  0.44179700     0.74900
O788        O  0.84166241  0.92877256  0.41995646    -0.58500
O789        O  0.87036320  0.90967887  0.45226808    -0.48600
O790        O  0.86509859  0.93214353  0.42667523    -0.54900
C791        C  0.85064341  0.95055672  0.45706192     0.85100
O792        O  0.83946399  0.91199743  0.46575202    -0.56800
O793        O  0.85752823  0.90067251  0.43341842    -0.60100
In794      In  0.85286391  0.08892381  0.50691914     1.36900
C795        C  0.85617845  0.07867594  0.53569487     0.77600
O796        O  0.84175901  0.06644063  0.50049863    -0.60900
O797        O  0.86436304  0.07091684  0.49203636    -0.51800
C798        C  0.83095737  0.10361969  0.49050396     0.70200
O799        O  0.82818860  0.09729757  0.50338166    -0.46600
C800        C  0.87454518  0.11028009  0.51015790     0.74900
O801        O  0.84526708  0.08773190  0.53209415    -0.58500
O802        O  0.87595484  0.09918125  0.50079568    -0.48600
O803        O  0.86471565  0.07475914  0.52465640    -0.54900
C804        C  0.85327874  0.06149075  0.49309495     0.85100
O805        O  0.84488339  0.10258523  0.48640952    -0.56800
O806        O  0.86184002  0.11072743  0.51722725    -0.60100
In807      In  0.74089868  0.17163835  0.39448968     1.36900
C808        C  0.71136781  0.17875405  0.38924871     0.77600
O809        O  0.74252795  0.19569659  0.40399147    -0.60900
O810        O  0.75547800  0.19034578  0.38390884    -0.51800
C811        C  0.75721825  0.15884703  0.41769238     0.70200
O812        O  0.74284666  0.16128158  0.41860596    -0.46600
C813        C  0.74077952  0.14979804  0.37283295     0.74900
O814        O  0.71581911  0.17363025  0.40222514    -0.58500
O815        O  0.74964971  0.16134720  0.37228018    -0.48600
O816        O  0.72200523  0.18049152  0.37951033    -0.54900
C817        C  0.75156653  0.20046008  0.39363066     0.85100
O818        O  0.76305722  0.16297054  0.40503686    -0.56800
O819        O  0.73305493  0.14884299  0.38512920    -0.60100
In820      In  0.80166037  0.33888561  0.39774711     1.36900
C821        C  0.82966719  0.32785674  0.39236951     0.77600
O822        O  0.79744309  0.31517380  0.40703462    -0.60900
O823        O  0.78576090  0.32159293  0.38644914    -0.51800
C824        C  0.78522452  0.35134382  0.42074033     0.70200
O825        O  0.79890587  0.34653388  0.42266341    -0.46600
C826        C  0.80488443  0.36235673  0.37809522     0.74900
O827        O  0.82674588  0.33514659  0.40472813    -0.58500
O828        O  0.79547245  0.35142191  0.37585655    -0.48600
O829        O  0.81846185  0.32652928  0.38320467    -0.54900
C830        C  0.78856690  0.31108894  0.39622445     0.85100
O831        O  0.78028900  0.34980364  0.40713496    -0.56800
O832        O  0.81195746  0.36168565  0.39082338    -0.60100
In833      In  0.85132541  0.08835810  0.19474662     1.36900
C834        C  0.84233966  0.09227688  0.16574390     0.77600
O835        O  0.82803682  0.07768795  0.19875596    -0.60900
O836        O  0.83192603  0.10014224  0.20766568    -0.51800
C837        C  0.86505962  0.06610809  0.21140190     0.70200
O838        O  0.86220364  0.06466403  0.19714471    -0.46600
C839        C  0.87415103  0.10896658  0.19347494     0.74900
O840        O  0.84653629  0.07915183  0.17065549    -0.58500
O841        O  0.86279821  0.11034654  0.20256497    -0.48600
O842        O  0.84311394  0.10299828  0.17548393    -0.54900
C843        C  0.82245935  0.08924271  0.20558061     0.85100
O844        O  0.86084399  0.07889283  0.21692882    -0.56800
O845        O  0.87412894  0.09663963  0.18571686    -0.60100
In846      In  0.68501999  0.08644805  0.25599630     1.36900
C847        C  0.69685864  0.09186600  0.28372260     0.77600
O848        O  0.70782470  0.07687046  0.24841215    -0.60900
O849        O  0.70156350  0.09932444  0.24070045    -0.51800
C850        C  0.66890495  0.06462887  0.24142943     0.70200
O851        O  0.67397670  0.06270644  0.25501794    -0.46600
C852        C  0.66203685  0.10604684  0.25958812     0.74900
O853        O  0.69332967  0.07828195  0.27957339    -0.58500
O854        O  0.67182087  0.10731689  0.24883747    -0.48600
O855        O  0.69431787  0.10216382  0.27381155    -0.54900
C856        C  0.71167061  0.08883821  0.24107275     0.85100
O857        O  0.67263089  0.07731310  0.23539079    -0.56800
O858        O  0.66359690  0.09418151  0.26790525    -0.60100
In859      In  0.60315530  0.97908933  0.14160573     1.36900
C860        C  0.59056960  0.95156240  0.13718948     0.77600
O861        O  0.58012287  0.98581717  0.15088347    -0.60900
O862        O  0.58656890  0.99456312  0.12881432    -0.51800
C863        C  0.61614175  0.99486537  0.16476973     0.70200
O864        O  0.61138883  0.98115117  0.16634617    -0.46600
C865        C  0.62667949  0.97395237  0.12251621     0.74900
O866        O  0.59766802  0.95471150  0.14959652    -0.58500
O867        O  0.61654544  0.98412844  0.11984172    -0.48600
O868        O  0.58993563  0.96238156  0.12753881    -0.54900
C869        C  0.57623158  0.99340162  0.13906204     0.85100
O870        O  0.61423576  0.00032017  0.15139096    -0.56800
O871        O  0.62523898  0.96721265  0.13533104    -0.60100
In872      In  0.43667260  0.03619783  0.14635059     1.36900
C873        C  0.44924450  0.06393271  0.14634058     0.77600
O874        O  0.45971668  0.02838476  0.15520648    -0.60900
O875        O  0.45360922  0.02239846  0.13219882    -0.51800
C876        C  0.42159558  0.01848741  0.16677492     0.70200
O877        O  0.42659505  0.03179209  0.17003126    -0.46600
C878        C  0.41515443  0.04424108  0.12609688     0.74900
O879        O  0.44212627  0.05901885  0.15812083    -0.58500
O880        O  0.42522930  0.03410369  0.12320448    -0.48600
O881        O  0.44983380  0.05474969  0.13517186    -0.54900
C882        C  0.46388240  0.02247589  0.14256933     0.85100
O883        O  0.42450424  0.01431828  0.15312462    -0.56800
O884        O  0.41527388  0.04926739  0.13973604    -0.60100
In885      In  0.18818977  0.91981378  0.20096332     1.36900
C886        C  0.19820174  0.91804012  0.17211700     0.77600
O887        O  0.21158785  0.92907348  0.20740179    -0.60900
O888        O  0.20547383  0.90676065  0.21546238    -0.51800
C889        C  0.17384735  0.94135858  0.21792765     0.70200
O890        O  0.17925063  0.94414151  0.20466612    -0.46600
C891        C  0.16648124  0.89878275  0.19548517     0.74900
O892        O  0.19087391  0.92974758  0.17687434    -0.58500
O893        O  0.17693187  0.89691529  0.20551017    -0.48600
O894        O  0.20081909  0.90790610  0.18217283    -0.54900
C895        C  0.21573099  0.91707353  0.21455494     0.85100
O896        O  0.17595886  0.92767216  0.22239846    -0.56800
O897        O  0.16632373  0.91196244  0.18935152    -0.60100
In898      In  0.35625419  0.91933429  0.25489865     1.36900
C899        C  0.34710232  0.91615555  0.28384840     0.77600
O900        O  0.33228794  0.92803670  0.25082182    -0.60900
O901        O  0.33815366  0.90587579  0.24204698    -0.51800
C902        C  0.36930001  0.94174006  0.23816127     0.70200
O903        O  0.36744667  0.94290962  0.25258788    -0.46600
C904        C  0.37860994  0.89838747  0.25624190     0.74900
O905        O  0.35087339  0.92927157  0.27861829    -0.58500
O906        O  0.36768916  0.89770639  0.24660350    -0.48600
O907        O  0.34826690  0.90519995  0.27443767    -0.54900
C908        C  0.32783444  0.91592706  0.24412747     0.85100
O909        O  0.36418843  0.92937916  0.23249085    -0.56800
O910        O  0.37877841  0.91050461  0.26431133    -0.60100
In911      In  0.93616425  0.97494869  0.30454352     1.36900
C912        C  0.94584934  0.94638643  0.31098536     0.77600
O913        O  0.95969994  0.97952302  0.29441558    -0.60900
O914        O  0.95437715  0.98922695  0.31630427    -0.51800
C915        C  0.92173413  0.99150719  0.28247455     0.70200
O916        O  0.92531949  0.97744406  0.28055212    -0.46600
C917        C  0.91339195  0.97270585  0.32500494     0.74900
O918        O  0.94167470  0.95009109  0.29740609    -0.58500
O919        O  0.92396280  0.98272906  0.32602659    -0.48600
O920        O  0.94525396  0.95719945  0.32063996    -0.54900
C921        C  0.96443325  0.98699472  0.30598860     0.85100
O922        O  0.92559052  0.99673531  0.29549091    -0.56800
O923        O  0.91391870  0.96472481  0.31281982    -0.60100
In924      In  0.10553763  0.02772397  0.31545795     1.36900
C925        C  0.09547029  0.05603843  0.32099369     0.77600
O926        O  0.08311942  0.02304637  0.30330133    -0.60900
O927        O  0.08645802  0.01330453  0.32557710    -0.51800
C928        C  0.12092581  0.01320418  0.29310964     0.70200
O929        O  0.11707721  0.02725061  0.29203210    -0.46600
C930        C  0.12719564  0.02858522  0.33712069     0.74900
O931        O  0.10248942  0.05284509  0.30857062    -0.58500
O932        O  0.11666134  0.01849445  0.33710445    -0.48600
O933        O  0.09372935  0.04491064  0.33015130    -0.54900
C934        C  0.07740855  0.01542171  0.31432036     0.85100
O935        O  0.11668382  0.00677901  0.30545352    -0.56800
O936        O  0.12691388  0.03751464  0.32564093    -0.60100
In937      In  0.54865250  0.16834803  0.89433773     1.36900
C938        C  0.57724580  0.16353897  0.90400308     0.77600
O939        O  0.54597335  0.17804429  0.91802014    -0.60900
O940        O  0.53351676  0.15755986  0.91259763    -0.51800
C941        C  0.53233767  0.19073226  0.88075172     0.70200
O942        O  0.54639050  0.19239767  0.88438972    -0.46600
C943        C  0.55190830  0.14825830  0.87135049     0.74900
O944        O  0.57298208  0.17667649  0.89913023    -0.58500
O945        O  0.54215794  0.14635963  0.88206867    -0.48600
O946        O  0.56693302  0.15328767  0.90388895    -0.54900
C947        C  0.53724523  0.16740925  0.92270107     0.85100
O948        O  0.52675992  0.17773838  0.88416635    -0.56800
O949        O  0.55910365  0.16089051  0.87203670    -0.60100
In950      In  0.49867915  0.16646778  0.06372464     1.36900
C951        C  0.47007161  0.16220374  0.05359599     0.77600
O952        O  0.50259131  0.17746196  0.04096022    -0.60900
O953        O  0.51216517  0.15513052  0.04480052    -0.51800
C954        C  0.51647231  0.18774002  0.07682834     0.70200
O955        O  0.50212761  0.18980232  0.07477138    -0.46600
C956        C  0.49653879  0.14669661  0.08676202     0.74900
O957        O  0.47464634  0.17537194  0.05807357    -0.58500
O958        O  0.50568693  0.14458307  0.07557632    -0.48600
O959        O  0.47993170  0.15157882  0.05472363    -0.54900
C960        C  0.50990074  0.16614762  0.03547176     0.85100
O961        O  0.52145416  0.17483625  0.07233340    -0.56800
O962        O  0.48924907  0.15931795  0.08638287    -0.60100
In963      In  0.44040202  0.28387348  0.81187077     1.36900
C964        C  0.43663964  0.31279085  0.80233246     0.77600
O965        O  0.45107778  0.27940112  0.78870822    -0.60900
O966        O  0.42901914  0.26964157  0.79339311    -0.51800
C967        C  0.46121027  0.26662311  0.82703220     0.70200
O968        O  0.46358861  0.28067164  0.82378107    -0.46600
C969        C  0.41894046  0.28722056  0.83335836     0.74900
O970        O  0.44956849  0.30814770  0.80744092    -0.58500
O971        O  0.41736386  0.27806628  0.82210531    -0.48600
O972        O  0.42621696  0.30272189  0.80199653    -0.54900
C973        C  0.43969457  0.27180927  0.78371970     0.85100
O974        O  0.44844689  0.26154085  0.82221933    -0.56800
O975        O  0.43202457  0.29355281  0.83428783    -0.60100
In976      In  0.44350700  0.22508279  0.64514151     1.36900
C977        C  0.44234279  0.19772402  0.65846535     0.77600
O978        O  0.45345780  0.23163406  0.66795675    -0.60900
O979        O  0.43162472  0.24102176  0.66172991    -0.51800
C980        C  0.46426483  0.24202249  0.62999075     0.70200
O981        O  0.46706204  0.22839834  0.63441565    -0.46600
C982        C  0.42187940  0.21814527  0.62451617     0.74900
O983        O  0.45364725  0.20142643  0.64994959    -0.58500
O984        O  0.42018542  0.22865896  0.63445745    -0.48600
O985        O  0.43219339  0.20796467  0.66013279    -0.54900
C986        C  0.44193660  0.23959761  0.67198010     0.85100
O987        O  0.45087737  0.24671452  0.63319645    -0.56800
O988        O  0.43508350  0.21203692  0.62440973    -0.60100
In989      In  0.54947544  0.34095267  0.56313467     1.36900
C990        C  0.57688852  0.34796410  0.55170344     0.77600
O991        O  0.54385125  0.32957573  0.54065178    -0.60900
O992        O  0.53431758  0.35182537  0.54498922    -0.51800
C993        C  0.53470750  0.31847440  0.57759081     0.70200
O994        O  0.54866003  0.31703916  0.57340576    -0.46600
C995        C  0.55201193  0.35942159  0.58762161     0.74900
O996        O  0.57382605  0.33437890  0.55623516    -0.58500
O997        O  0.54166473  0.36121379  0.57741925    -0.48600
O998        O  0.56603513  0.35755699  0.55305946    -0.54900
C999        C  0.53605898  0.34078803  0.53557503     0.85100
O1000       O  0.52847205  0.33114427  0.57403467    -0.56800
O1001       O  0.56066009  0.34793063  0.58527525    -0.60100
In1002     In  0.49080379  0.33536805  0.39530127     1.36900
C1003       C  0.46147130  0.33821927  0.40425164     0.77600
O1004       O  0.49580696  0.32562443  0.41889521    -0.60900
O1005       O  0.50439204  0.34795258  0.41368539    -0.51800
C1006       C  0.50713960  0.31325717  0.38088060     0.70200
O1007       O  0.49275353  0.31221204  0.38310670    -0.46600
C1008       C  0.48888234  0.35651032  0.37301069     0.74900
O1009       O  0.46710710  0.32519015  0.40080365    -0.58500
O1010       O  0.49754698  0.35816027  0.38464658    -0.48600
O1011       O  0.47077309  0.34927569  0.40312906    -0.54900
C1012       C  0.50286497  0.33742321  0.42364269     0.85100
O1013       O  0.51303300  0.32537581  0.38636483    -0.56800
O1014       O  0.48223584  0.34359325  0.37224860    -0.60100
In1015     In  0.61025656  0.27867041  0.14243285     1.36900
C1016       C  0.61182566  0.30674887  0.15365836     0.77600
O1017       O  0.59793796  0.27220938  0.16416566    -0.60900
O1018       O  0.62121420  0.26480149  0.16139375    -0.51800
C1019       C  0.59020325  0.26235158  0.12641900     0.70200
O1020       O  0.58750238  0.27611123  0.13043134    -0.46600
C1021       C  0.63197138  0.28346024  0.12135407     0.74900
O1022       O  0.60014939  0.30237708  0.14601510    -0.58500
O1023       O  0.63299823  0.27286774  0.13135589    -0.48600
O1024       O  0.62218757  0.29675514  0.15564432    -0.54900
C1025       C  0.60953956  0.26569132  0.17010747     0.85100
O1026       O  0.60307163  0.25707506  0.13072710    -0.56800
O1027       O  0.61944018  0.29082841  0.12169977    -0.60100
In1028     In  0.60064092  0.22378620  0.30999617     1.36900
C1029       C  0.60402129  0.19547103  0.29902485     0.77600
O1030       O  0.59172224  0.23074117  0.28676988    -0.60900
O1031       O  0.61438673  0.23790290  0.29301748    -0.51800
C1032       C  0.57890773  0.24033240  0.32416563     0.70200
O1033       O  0.57643651  0.22677267  0.31934122    -0.46600
C1034       C  0.61909473  0.21913713  0.33432279     0.74900
O1035       O  0.59095227  0.20036848  0.30339558    -0.58500
O1036       O  0.62212381  0.22865000  0.32367089    -0.48600
O1037       O  0.61490580  0.20499297  0.30021939    -0.54900
C1038       C  0.60405823  0.23729801  0.28271820     0.85100
O1039       O  0.59220427  0.24544800  0.32115952    -0.56800
O1040       O  0.60624961  0.21254109  0.33256132    -0.60100
In1041     In  0.93996473  0.28335737  0.31016375     1.36900
C1042       C  0.93395533  0.31132805  0.29967739     0.77600
O1043       O  0.95403261  0.28032381  0.28874960    -0.60900
O1044       O  0.93209506  0.26950379  0.28982760    -0.51800
C1045       C  0.95991731  0.26589233  0.32582195     0.70200
O1046       O  0.96226576  0.28016173  0.32351599    -0.46600
C1047       C  0.91771965  0.28674487  0.33067852     0.74900
O1048       O  0.94633244  0.30857636  0.30711941    -0.58500
O1049       O  0.91643238  0.27750284  0.31941236    -0.48600
O1050       O  0.92538808  0.29980653  0.29751958    -0.54900
C1051       C  0.94387639  0.27256083  0.28172193     0.85100
O1052       O  0.94743116  0.26081754  0.32022989    -0.56800
O1053       O  0.93076192  0.29309499  0.33203491    -0.60100
In1054     In  0.94436752  0.22288894  0.14326114     1.36900
C1055       C  0.93937621  0.19566667  0.15638574     0.77600
O1056       O  0.95638592  0.22902823  0.16505518    -0.60900
O1057       O  0.93525800  0.24016101  0.16044377    -0.51800
C1058       C  0.96640448  0.23823354  0.12791836     0.70200
O1059       O  0.96848034  0.22470456  0.13308945    -0.46600
C1060       C  0.92235401  0.21789896  0.12258396     0.74900
O1061       O  0.95085272  0.19780351  0.14754126    -0.58500
O1062       O  0.92094062  0.22779449  0.13321779    -0.48600
O1063       O  0.93117192  0.20741765  0.15870001    -0.54900
C1064       C  0.94631520  0.23836973  0.16984483     0.85100
O1065       O  0.95301213  0.24347466  0.13025720    -0.56800
O1066       O  0.93540701  0.21148339  0.12186115    -0.60100
In1067     In  0.10711461  0.23095292  0.81084292     1.36900
C1068       C  0.11276941  0.20232101  0.80178277     0.77600
O1069       O  0.09741341  0.23182858  0.78692810    -0.60900
O1070       O  0.11657976  0.24628372  0.79208933    -0.51800
C1071       C  0.08400604  0.24621823  0.82461589     0.70200
O1072       O  0.08384298  0.23173111  0.82288994    -0.46600
C1073       C  0.12908688  0.23095085  0.83227227     0.74900
O1074       O  0.09955623  0.20619169  0.80675902    -0.58500
O1075       O  0.12922401  0.24005416  0.82087583    -0.48600
O1076       O  0.12271009  0.21290981  0.80187461    -0.54900
C1077       C  0.10725586  0.24134208  0.78202329     0.85100
O1078       O  0.09579889  0.25269114  0.81912114    -0.56800
O1079       O  0.11712595  0.22270382  0.83322037    -0.60100
In1080     In  0.10349277  0.28449693  0.64203939     1.36900
C1081       C  0.10991072  0.31141583  0.65467446     0.77600
O1082       O  0.09301335  0.28017926  0.66512770    -0.60900
O1083       O  0.11375665  0.26830871  0.65954068    -0.51800
C1084       C  0.07979920  0.26994891  0.62875493     0.70200
O1085       O  0.07904985  0.28405317  0.63249065    -0.46600
C1086       C  0.12404827  0.28734949  0.61919108     0.74900
O1087       O  0.09728843  0.30925444  0.64753676    -0.58500
O1088       O  0.12433426  0.27633331  0.62875957    -0.48600
O1089       O  0.11893150  0.30001903  0.65507295    -0.54900
C1090       C  0.10363253  0.27129109  0.66964354     0.85100
O1091       O  0.09269539  0.26374721  0.63140507    -0.56800
O1092       O  0.11271277  0.29629199  0.62103813    -0.60100
In1093     In  0.98927067  0.33510288  0.89471265     1.36900
C1094       C  0.95984613  0.33719993  0.90282125     0.77600
O1095       O  0.99510764  0.32218533  0.91641406    -0.60900
O1096       O  0.00128285  0.34567102  0.91500389    -0.51800
C1097       C  0.00775710  0.31518296  0.88029539     0.70200
O1098       O  0.99415918  0.31169541  0.88436604    -0.46600
C1099       C  0.98702742  0.35805978  0.87460868     0.74900
O1100       O  0.96450515  0.32633488  0.89422585    -0.58500
O1101       O  0.99564108  0.35876814  0.88638137    -0.48600
O1102       O  0.97020245  0.34618282  0.90752780    -0.54900
C1103       C  0.00098852  0.33362775  0.92320806     0.85100
O1104       O  0.01156309  0.32888636  0.88335796    -0.56800
O1105       O  0.98058273  0.34518221  0.87253476    -0.60100
In1106     In  0.05356131  0.33553399  0.06070174     1.36900
C1107       C  0.08001338  0.34277157  0.04718871     0.77600
O1108       O  0.04738406  0.32229655  0.03962675    -0.60900
O1109       O  0.03797409  0.34475255  0.04224400    -0.51800
C1110       C  0.03936729  0.31318017  0.07618301     0.70200
O1111       O  0.05331523  0.31192786  0.07188182    -0.46600
C1112       C  0.05602543  0.35575751  0.08343575     0.74900
O1113       O  0.07843864  0.33012390  0.05444031    -0.58500
O1114       O  0.04531794  0.35656779  0.07349410    -0.48600
O1115       O  0.06827945  0.35136848  0.04723795    -0.54900
C1116       C  0.03940094  0.33296323  0.03373271     0.85100
O1117       O  0.03296610  0.32573594  0.07247851    -0.56800
O1118       O  0.06502609  0.34442448  0.08177183    -0.60100
In1119     In  0.98828977  0.17504021  0.56338849     1.36900
C1120       C  0.96096310  0.17277518  0.54988868     0.77600
O1121       O  0.99571670  0.18324533  0.54023897    -0.60900
O1122       O  0.00327797  0.16101713  0.54766524    -0.51800
C1123       C  0.00537844  0.19695804  0.57674596     0.70200
O1124       O  0.99220895  0.19964994  0.57101461    -0.46600
C1125       C  0.98134630  0.15564667  0.58587408     0.74900
O1126       O  0.96435423  0.18447174  0.55798946    -0.58500
O1127       O  0.99166481  0.15274546  0.57601101    -0.48600
O1128       O  0.97139876  0.16277493  0.54888078    -0.54900
C1129       C  0.00244694  0.17078361  0.53684496     0.85100
O1130       O  0.00962415  0.18308040  0.57567447    -0.56800
O1131       O  0.97526744  0.16881772  0.58482317    -0.60100
In1132     In  0.04482119  0.16756795  0.39838101     1.36900
C1133       C  0.07298691  0.16508657  0.41065230     0.77600
O1134       O  0.03768982  0.17756719  0.42110045    -0.60900
O1135       O  0.02926153  0.15529477  0.41505989    -0.51800
C1136       C  0.02824541  0.18918032  0.38312462     0.70200
O1137       O  0.04128353  0.19194709  0.38912124    -0.46600
C1138       C  0.05074143  0.14562704  0.37796273     0.74900
O1139       O  0.06943119  0.17636389  0.40201927    -0.58500
O1140       O  0.04035582  0.14420993  0.38809132    -0.48600
O1141       O  0.06220610  0.15571584  0.41307307    -0.54900
C1142       C  0.03019828  0.16575926  0.42515145     0.85100
O1143       O  0.02399210  0.17535903  0.38473002    -0.56800
O1144       O  0.05708872  0.15870773  0.37753025    -0.60100
In1145     In  0.85285635  0.58749335  0.69549259     1.36900
C1146       C  0.84021133  0.59064594  0.66766380     0.77600
O1147       O  0.83066723  0.57661616  0.70278975    -0.60900
O1148       O  0.83562515  0.59922192  0.71107981    -0.51800
C1149       C  0.86865565  0.56633053  0.71166848     0.70200
O1150       O  0.86535027  0.56455550  0.69753445    -0.46600
C1151       C  0.87509246  0.60798106  0.69016523     0.74900
O1152       O  0.84493828  0.57762929  0.67241106    -0.58500
O1153       O  0.86474998  0.61010168  0.70026184    -0.48600
O1154       O  0.84180589  0.60152337  0.67713818    -0.54900
C1155       C  0.82620376  0.58809298  0.71052571     0.85100
O1156       O  0.86377872  0.57883800  0.71726929    -0.56800
O1157       O  0.87453270  0.59498865  0.68362830    -0.60100
In1158     In  0.68764133  0.58633970  0.75856500     1.36900
C1159       C  0.69634738  0.59241572  0.78710357     0.77600
O1160       O  0.71080628  0.57524257  0.75615104    -0.60900
O1161       O  0.70653938  0.59593988  0.74361734    -0.51800
C1162       C  0.67385721  0.56312306  0.74401494     0.70200
O1163       O  0.67657178  0.56286795  0.75835146    -0.46600
C1164       C  0.66544482  0.60724813  0.75914272     0.74900
O1165       O  0.69121654  0.57925770  0.78338996    -0.58500
O1166       O  0.67690963  0.60841488  0.75017660    -0.48600
O1167       O  0.69698119  0.60213306  0.77633357    -0.54900
C1168       C  0.71608893  0.58554038  0.74734387     0.85100
O1169       O  0.67823686  0.57524485  0.73725048    -0.56800
O1170       O  0.66488768  0.59487089  0.76676825    -0.60100
In1171     In  0.60910917  0.47145191  0.65131428     1.36900
C1172       C  0.59774759  0.44351230  0.64714575     0.77600
O1173       O  0.58507828  0.47571721  0.65948718    -0.60900
O1174       O  0.59338355  0.48922075  0.64072554    -0.51800
C1175       C  0.62387535  0.48571591  0.67416186     0.70200
O1176       O  0.61979209  0.47176936  0.67520885    -0.46600
C1177       C  0.63055201  0.46775130  0.62986260     0.74900
O1178       O  0.60272231  0.44776892  0.66022076    -0.58500
O1179       O  0.61995854  0.47770122  0.62876837    -0.48600
O1180       O  0.59859887  0.45349998  0.63663347    -0.54900
C1181       C  0.58222075  0.48581715  0.64941872     0.85100
O1182       O  0.62010670  0.49216638  0.66169673    -0.56800
O1183       O  0.63092104  0.46065055  0.64256668    -0.60100
In1184     In  0.44407603  0.53417225  0.64323620     1.36900
C1185       C  0.45423786  0.56278961  0.64137203     0.77600
O1186       O  0.46621043  0.53032987  0.65583513    -0.60900
O1187       O  0.46353386  0.52004143  0.63369262    -0.51800
C1188       C  0.42961225  0.51721693  0.66422925     0.70200
O1189       O  0.43269530  0.53131116  0.66633962    -0.46600
C1190       C  0.42356079  0.53657854  0.62056422     0.74900
O1191       O  0.44523872  0.55869174  0.65212300    -0.58500
O1192       O  0.43545865  0.52821206  0.61945791    -0.48600
O1193       O  0.45771105  0.55239621  0.63187486    -0.54900
C1194       C  0.47230996  0.52266342  0.64507913     0.85100
O1195       O  0.43391707  0.51192515  0.65137908    -0.56800
O1196       O  0.42178354  0.54298951  0.63348628    -0.60100
In1197     In  0.93945813  0.47852813  0.80671166     1.36900
C1198       C  0.95132337  0.45159430  0.81539314     0.77600
O1199       O  0.96066921  0.48252278  0.79300255    -0.60900
O1200       O  0.95873377  0.49382254  0.81474876    -0.51800
C1201       C  0.92408279  0.49346953  0.78473464     0.70200
O1202       O  0.92850325  0.47960480  0.78299629    -0.46600
C1203       C  0.91681751  0.47680372  0.82700479     0.74900
O1204       O  0.94434627  0.45314221  0.80255407    -0.58500
O1205       O  0.92704837  0.48724534  0.82762516    -0.48600
O1206       O  0.95205957  0.46373941  0.82337236    -0.54900
C1207       C  0.96704184  0.49089571  0.80307053     0.85100
O1208       O  0.92757957  0.49940421  0.79757148    -0.56800
O1209       O  0.91806688  0.46777829  0.81563007    -0.60100
In1210     In  0.10706704  0.53504118  0.80555415     1.36900
C1211       C  0.09582393  0.56295428  0.81046505     0.77600
O1212       O  0.08419872  0.53301648  0.79425810    -0.60900
O1213       O  0.08882223  0.51844053  0.81337704    -0.51800
C1214       C  0.12128276  0.51904080  0.78367667     0.70200
O1215       O  0.11909685  0.53343336  0.78241812    -0.46600
C1216       C  0.12778633  0.53663122  0.82779190     0.74900
O1217       O  0.10387512  0.56008179  0.79857476    -0.58500
O1218       O  0.11584560  0.52834886  0.82888423    -0.48600
O1219       O  0.09392964  0.55174068  0.81949911    -0.54900
C1220       C  0.07908255  0.52296649  0.80345774     0.85100
O1221       O  0.11639193  0.51316811  0.79604328    -0.56800
O1222       O  0.12957501  0.54329634  0.81498294    -0.60100
In1223     In  0.19242690  0.41745657  0.70543627     1.36900
C1224       C  0.20462166  0.41056451  0.67836195     0.77600
O1225       O  0.21471214  0.42911578  0.71020025    -0.60900
O1226       O  0.20943310  0.40878501  0.72300285    -0.51800
C1227       C  0.17715746  0.44043828  0.71903188     0.70200
O1228       O  0.18336815  0.44190759  0.70589166    -0.46600
C1229       C  0.17081209  0.39635814  0.70184372     0.74900
O1230       O  0.19661434  0.42267237  0.68025039    -0.58500
O1231       O  0.18110220  0.39517612  0.71217639    -0.48600
O1232       O  0.20652676  0.40243867  0.69026502    -0.54900
C1233       C  0.21916387  0.41923430  0.71993265     0.85100
O1234       O  0.17863140  0.42717885  0.72485470    -0.56800
O1235       O  0.17113393  0.40875483  0.69421508    -0.60100
In1236     In  0.36006783  0.42677418  0.75751212     1.36900
C1237       C  0.35080504  0.42399618  0.78640705     0.77600
O1238       O  0.33664384  0.43688435  0.75403492    -0.60900
O1239       O  0.34167135  0.41554176  0.74297676    -0.51800
C1240       C  0.37418084  0.44761676  0.73973218     0.70200
O1241       O  0.36938497  0.45077598  0.75314655    -0.46600
C1242       C  0.38114352  0.40503205  0.76165290     0.74900
O1243       O  0.35662282  0.43654690  0.78162624    -0.58500
O1244       O  0.37019969  0.40364504  0.75207235    -0.48600
O1245       O  0.34988116  0.41344421  0.77649429    -0.54900
C1246       C  0.33174603  0.42573644  0.74612547     0.85100
O1247       O  0.37202630  0.43378785  0.73584664    -0.56800
O1248       O  0.38194368  0.41809333  0.76807216    -0.60100
C1249       C  0.31530132  0.42417070  0.74225893     0.01300
C1250       C  0.30502711  0.41902775  0.75375497     0.04200
C1251       C  0.28912870  0.41845842  0.75078499    -0.11900
C1252       C  0.28346440  0.42266293  0.73616987     0.23500
C1253       C  0.29373464  0.42745936  0.72450890    -0.12500
C1254       C  0.30966223  0.42834858  0.72760985     0.04900
C1255       C  0.26672448  0.42158816  0.73300006     0.27300
C1256       C  0.26023429  0.40730564  0.72887244    -0.13200
C1257       C  0.24441743  0.40627955  0.72538914     0.05400
C1258       C  0.23499088  0.41955642  0.72626916    -0.09100
C1259       C  0.24139526  0.43365582  0.73129041     0.06200
C1260       C  0.25728493  0.43471913  0.73441931    -0.13500
Br1261     Br  0.28590501  0.43269091  0.70432644    -0.05600
Br1262     Br  0.31270091  0.41227890  0.77350226     0.00100
Br1263     Br  0.23613083  0.38685639  0.71837182     0.00500
Br1264     Br  0.26626925  0.45419369  0.74036987    -0.03900
Br1265     Br  0.32367649  0.43545819  0.71194333     0.00600
Br1266     Br  0.27503516  0.41186129  0.76671032    -0.03200
Br1267     Br  0.27324930  0.38925596  0.72762260    -0.04100
Br1268     Br  0.22831551  0.45139574  0.73447046    -0.00100
C1269       C  0.16890971  0.45314046  0.72719806     0.01300
C1270       C  0.15960663  0.46381395  0.71900284     0.04200
C1271       C  0.15186499  0.47573916  0.72694059    -0.11900
C1272       C  0.15252825  0.47652209  0.74314754     0.23500
C1273       C  0.16153002  0.46579001  0.75137618    -0.12500
C1274       C  0.17006862  0.45447438  0.74345960     0.04900
C1275       C  0.14381045  0.48856119  0.75174370     0.27300
C1276       C  0.15131365  0.50216185  0.75653088    -0.13200
C1277       C  0.14389867  0.51242552  0.76673799     0.05400
C1278       C  0.12868048  0.50942673  0.77167369    -0.09100
C1279       C  0.12087260  0.49626745  0.76612743     0.06200
C1280       C  0.12848047  0.48576665  0.75636552    -0.13500
Br1281     Br  0.16204241  0.46664077  0.77365101    -0.05600
Br1282     Br  0.15641133  0.46165636  0.69707701     0.00100
Br1283     Br  0.15517524  0.52965071  0.77512377     0.00500
Br1284     Br  0.11814451  0.46718970  0.74983590    -0.03900
Br1285     Br  0.18404515  0.44156434  0.75512283     0.00600
Br1286     Br  0.14042768  0.49119693  0.71571055    -0.03200
Br1287     Br  0.17198112  0.50633216  0.74942307    -0.04100
Br1288     Br  0.09965930  0.49262027  0.77192110    -0.00100
C1289       C  0.98330678  0.49603688  0.80165729     0.01300
C1290       C  0.98772665  0.51103730  0.80625324     0.04200
C1291       C  0.00338283  0.51538240  0.80588033    -0.11900
C1292       C  0.01474195  0.50459981  0.80158089     0.23500
C1293       C  0.01040229  0.48972544  0.79683416    -0.12500
C1294       C  0.99472213  0.48559249  0.79634315     0.04900
C1295       C  0.03129923  0.50891101  0.80200868     0.27300
C1296       C  0.03873420  0.51378914  0.78846366    -0.13200
C1297       C  0.05444070  0.51787450  0.78879054     0.05400
C1298       C  0.06279300  0.51750125  0.80289376    -0.09100
C1299       C  0.05509108  0.51280429  0.81656715     0.06200
C1300       C  0.03951882  0.50819522  0.81598305    -0.13500
Br1301     Br  0.02611780  0.47486611  0.79146062    -0.05600
Br1302     Br  0.97239772  0.52598883  0.81233863     0.00100
Br1303     Br  0.06416318  0.52368626  0.76957167     0.00500
Br1304     Br  0.02920289  0.50094262  0.83436466    -0.03900
Br1305     Br  0.98931845  0.46538070  0.78862494     0.00600
Br1306     Br  0.00942657  0.53615252  0.81112580    -0.03200
Br1307     Br  0.02716823  0.51501134  0.76943682    -0.04100
Br1308     Br  0.06502981  0.51381452  0.83652407    -0.00100
C1309       C  0.38163850  0.45901003  0.72918261     0.01300
C1310       C  0.37934293  0.45785493  0.71301187     0.04200
C1311       C  0.38728865  0.46769245  0.70283736    -0.11900
C1312       C  0.39727731  0.47907467  0.70861638     0.23500
C1313       C  0.39904363  0.48084977  0.72467532    -0.12500
C1314       C  0.39137586  0.47080447  0.73495346     0.04900
C1315       C  0.40588579  0.48913139  0.69768187     0.27300
C1316       C  0.41964998  0.48380413  0.69086223    -0.13200
C1317       C  0.42736431  0.49291835  0.67984697     0.05400
C1318       C  0.42153349  0.50761272  0.67583377    -0.09100
C1319       C  0.40771545  0.51290164  0.68264941     0.06200
C1320       C  0.39985497  0.50361331  0.69342038    -0.13500
Br1321     Br  0.41211004  0.49708184  0.73249268    -0.05600
Br1322     Br  0.36463608  0.44350008  0.70443591     0.00100
Br1323     Br  0.44603977  0.48519844  0.67047862     0.00500
Br1324     Br  0.38041732  0.51035617  0.70188782    -0.03900
Br1325     Br  0.39496759  0.47301861  0.75682637     0.00600
Br1326     Br  0.38449067  0.46569969  0.68080299    -0.03200
Br1327     Br  0.42774617  0.46381668  0.69644921    -0.04100
Br1328     Br  0.39883614  0.53235089  0.67639272    -0.00100
C1329       C  0.56668850  0.49237780  0.64753324     0.01300
C1330       C  0.55472551  0.48286855  0.64202705     0.04200
C1331       C  0.53948497  0.48835985  0.64168733    -0.11900
C1332       C  0.53622415  0.50353229  0.64645420     0.23500
C1333       C  0.54830415  0.51331227  0.65125929    -0.12500
C1334       C  0.56356053  0.50771624  0.65181321     0.04900
C1335       C  0.52004315  0.50908052  0.64637694     0.27300
C1336       C  0.51395774  0.51622802  0.63312505    -0.13200
C1337       C  0.49836869  0.52076099  0.63273990     0.05400
C1338       C  0.48868787  0.51783059  0.64553222    -0.09100
C1339       C  0.49497014  0.51106005  0.65898114     0.06200
C1340       C  0.51060651  0.50667967  0.65936483    -0.13500
Br1341     Br  0.54383000  0.53424284  0.65726743    -0.05600
Br1342     Br  0.55936155  0.46253541  0.63425646     0.00100
Br1343     Br  0.49076133  0.53208872  0.61510313     0.00500
Br1344     Br  0.51919285  0.49722456  0.67762827    -0.03900
Br1345     Br  0.58012113  0.52086027  0.65870673     0.00600
Br1346     Br  0.52298825  0.47505208  0.63489046    -0.03200
Br1347     Br  0.52711411  0.51977111  0.61552332    -0.04100
Br1348     Br  0.48222241  0.50735866  0.67683838    -0.00100
C1349       C  0.66625171  0.55026015  0.73565822     0.01300
C1350       C  0.65441835  0.55338827  0.72485872     0.04200
C1351       C  0.64791767  0.54134355  0.71613666    -0.11900
C1352       C  0.65306100  0.52606198  0.71818718     0.23500
C1353       C  0.66451516  0.52281184  0.72927244    -0.12500
C1354       C  0.67115418  0.53487140  0.73794698     0.04900
C1355       C  0.64701906  0.51375357  0.70786053     0.27300
C1356       C  0.63439098  0.50455241  0.71236957    -0.13200
C1357       C  0.62745812  0.49439143  0.70169798     0.05400
C1358       C  0.63261595  0.49407791  0.68624243    -0.09100
C1359       C  0.64565477  0.50285838  0.68196822     0.06200
C1360       C  0.65305766  0.51231694  0.69285802    -0.13500
Br1361     Br  0.67141048  0.50186516  0.73216685    -0.05600
Br1362     Br  0.64664072  0.57409279  0.72220879     0.00100
Br1363     Br  0.61034135  0.48170375  0.70809907     0.00500
Br1364     Br  0.67130750  0.52370884  0.68715373    -0.03900
Br1365     Br  0.68777598  0.53032732  0.75208802     0.00600
Br1366     Br  0.63206866  0.54574529  0.70106126    -0.03200
Br1367     Br  0.62611013  0.50658206  0.73290998    -0.04100
Br1368     Br  0.65349066  0.50202868  0.66112182    -0.00100
C1369       C  0.91550121  0.50237998  0.77281414     0.01300
C1370       C  0.90146711  0.50972139  0.77668698     0.04200
C1371       C  0.89386449  0.51922743  0.76586621    -0.11900
C1372       C  0.90044388  0.52194164  0.75124164     0.23500
C1373       C  0.91440819  0.51453652  0.74730474    -0.12500
C1374       C  0.92182947  0.50466699  0.75798378     0.04900
C1375       C  0.89299126  0.53316576  0.74040033     0.27300
C1376       C  0.88277523  0.52803996  0.72882981    -0.13200
C1377       C  0.87506590  0.53875454  0.71920959     0.05400
C1378       C  0.87746275  0.55481158  0.72111536    -0.09100
C1379       C  0.88795097  0.55986454  0.73263572     0.06200
C1380       C  0.89564628  0.54909506  0.74215193    -0.13500
Br1381     Br  0.92363388  0.51842439  0.72745663    -0.05600
Br1382     Br  0.89253024  0.50675361  0.79686719     0.00100
Br1383     Br  0.86044790  0.53120240  0.70419808     0.00500
Br1384     Br  0.90983894  0.55612278  0.75783587    -0.03900
Br1385     Br  0.94128065  0.49522365  0.75269320     0.00600
Br1386     Br  0.87442197  0.52873344  0.77108908    -0.03200
Br1387     Br  0.87902185  0.50623419  0.72657562    -0.04100
Br1388     Br  0.89235251  0.58154644  0.73535003    -0.00100
C1389       C  0.81071333  0.58858823  0.71756275     0.01300
C1390       C  0.80755799  0.58028915  0.73118023     0.04200
C1391       C  0.79230446  0.57931415  0.73677119    -0.11900
C1392       C  0.78016128  0.58651611  0.72864465     0.23500
C1393       C  0.78340893  0.59502013  0.71515447    -0.12500
C1394       C  0.79866533  0.59620557  0.70974450     0.04900
C1395       C  0.76399278  0.58564514  0.73436580     0.27300
C1396       C  0.75464500  0.57280626  0.73083998    -0.13200
C1397       C  0.73890254  0.57279908  0.73494199     0.05400
C1398       C  0.73242301  0.58569515  0.74244909    -0.09100
C1399       C  0.74187620  0.59836865  0.74628275     0.06200
C1400       C  0.75766748  0.59819676  0.74250655    -0.13500
Br1401     Br  0.76682705  0.60472826  0.70386343    -0.05600
Br1402     Br  0.82422914  0.57054964  0.74225967     0.00100
Br1403     Br  0.72603268  0.55542804  0.72962804     0.00500
Br1404     Br  0.77086800  0.61494106  0.74885581    -0.03900
Br1405     Br  0.80307177  0.60804459  0.69140944     0.00600
Br1406     Br  0.78795408  0.56808503  0.75547612    -0.03200
Br1407     Br  0.76346396  0.55521851  0.72046948    -0.04100
Br1408     Br  0.73336537  0.61578989  0.75721774    -0.00100
C1409       C  0.00753889  0.16752415  0.52096028     0.01300
C1410       C  0.01709518  0.17808948  0.51317074     0.04200
C1411       C  0.02011380  0.17616234  0.49736651    -0.11900
C1412       C  0.01304231  0.16406488  0.48912592     0.23500
C1413       C  0.00379321  0.15325238  0.49694929    -0.12500
C1414       C  0.00120430  0.15484519  0.51289423     0.04900
C1415       C  0.01558313  0.16282471  0.47225849     0.27300
C1416       C  0.00809558  0.17314164  0.46213437    -0.13200
C1417       C  0.01279074  0.17412600  0.44662642     0.05400
C1418       C  0.02408890  0.16393188  0.44092405    -0.09100
C1419       C  0.03060992  0.15271531  0.45079598     0.06200
C1420       C  0.02663124  0.15241747  0.46651396    -0.13500
Br1421     Br  0.99443510  0.13646218  0.48571559    -0.05600
Br1422     Br  0.02617257  0.19515502  0.52417140     0.00100
Br1423     Br  0.00409148  0.18972193  0.43335986     0.00500
Br1424     Br  0.03688115  0.13831855  0.48041403    -0.03900
Br1425     Br  0.98804270  0.14017885  0.52329208     0.00600
Br1426     Br  0.03412025  0.18998603  0.48695188    -0.03200
Br1427     Br  0.99153481  0.18598672  0.46965643    -0.04100
Br1428     Br  0.04592098  0.13847559  0.44318419    -0.00100
C1429       C  0.98360751  0.37159424  0.86475240     0.01300
C1430       C  0.97756047  0.38506608  0.87158959     0.04200
C1431       C  0.97273734  0.39749282  0.86231117    -0.11900
C1432       C  0.97417276  0.39671962  0.84611683     0.23500
C1433       C  0.98041510  0.38333309  0.83926504    -0.12500
C1434       C  0.98497100  0.37073620  0.84855077     0.04900
C1435       C  0.96911507  0.41008747  0.83648270     0.27300
C1436       C  0.95473337  0.40982468  0.82883110    -0.13200
C1437       C  0.94925703  0.42308815  0.82107602     0.05400
C1438       C  0.95801317  0.43684280  0.82118251    -0.09100
C1439       C  0.97263275  0.43689058  0.82851810     0.06200
C1440       C  0.97816923  0.42356418  0.83600783    -0.13500
Br1441     Br  0.98265733  0.38227278  0.81715348    -0.05600
Br1442     Br  0.97482486  0.38618409  0.89368692     0.00100
Br1443     Br  0.92913215  0.42265204  0.81154691     0.00500
Br1444     Br  0.99795142  0.42393921  0.84632278    -0.03900
Br1445     Br  0.99343450  0.35244750  0.83910931     0.00600
Br1446     Br  0.96367032  0.41547964  0.87180372    -0.03200
Br1447     Br  0.94208452  0.39154007  0.82990867    -0.04100
Br1448     Br  0.98528897  0.45521624  0.82853559    -0.00100
C1449       C  0.00669029  0.33311660  0.93953454     0.01300
C1450       C  0.00104804  0.32186570  0.95009813     0.04200
C1451       C  0.00597742  0.32191578  0.96559727    -0.11900
C1452       C  0.01661978  0.33296836  0.97075710     0.23500
C1453       C  0.02234682  0.34409960  0.96046405    -0.12500
C1454       C  0.01750699  0.34420375  0.94493248     0.04900
C1455       C  0.02213000  0.33257752  0.98698740     0.27300
C1456       C  0.01391985  0.34038949  0.99858452    -0.13200
C1457       C  0.01924564  0.34015795  0.01394419     0.05400
C1458       C  0.03289033  0.33200772  0.01783546    -0.09100
C1459       C  0.04068496  0.32352925  0.00616130     0.06200
C1460       C  0.03537509  0.32401960  0.99081033    -0.13500
Br1461     Br  0.03693404  0.35924105  0.96784422    -0.05600
Br1462     Br  0.98626755  0.30632371  0.94408518     0.00100
Br1463     Br  0.00710675  0.35035286  0.02959655     0.00500
Br1464     Br  0.04627814  0.31303200  0.97477113    -0.03900
Br1465     Br  0.02654611  0.35935357  0.93128626     0.00600
Br1466     Br  0.99808503  0.30690419  0.98009740    -0.03200
Br1467     Br  0.99520585  0.35126848  0.99329369    -0.04100
Br1468     Br  0.05891331  0.31137065  0.01055527    -0.00100
C1469       C  0.06672650  0.26100728  0.62206588     0.01300
C1470       C  0.05801877  0.26677616  0.60951143     0.04200
C1471       C  0.04682555  0.25736409  0.60226946    -0.11900
C1472       C  0.04418615  0.24220813  0.60758214     0.23500
C1473       C  0.05230296  0.23675213  0.62056361    -0.12500
C1474       C  0.06353101  0.24603699  0.62773782     0.04900
C1475       C  0.03390997  0.23142946  0.59891384     0.27300
C1476       C  0.01794761  0.23081439  0.60197633    -0.13200
C1477       C  0.00862161  0.21954487  0.59479627     0.05400
C1478       C  0.01512858  0.20901903  0.58417145    -0.09100
C1479       C  0.03114236  0.20976725  0.58105280     0.06200
C1480       C  0.04046117  0.22082750  0.58848414    -0.13500
Br1481     Br  0.04830505  0.21620631  0.62818355    -0.05600
Br1482     Br  0.06215573  0.28708071  0.60140016     0.00100
Br1483     Br  0.98725205  0.21762762  0.60075682     0.00500
Br1484     Br  0.06245109  0.22118637  0.58483711    -0.03900
Br1485     Br  0.07433795  0.23808314  0.64554575     0.00600
Br1486     Br  0.03549843  0.26492662  0.58465616    -0.03200
Br1487     Br  0.00902609  0.24506391  0.61652131    -0.04100
Br1488     Br  0.04052903  0.19586796  0.56641526    -0.00100
C1489       C  0.11440859  0.32606378  0.66195626     0.01300
C1490       C  0.12357719  0.33651183  0.65359364     0.04200
C1491       C  0.13136707  0.34846327  0.66132276    -0.11900
C1492       C  0.12995384  0.35002600  0.67746441     0.23500
C1493       C  0.12011306  0.34006544  0.68571303    -0.12500
C1494       C  0.11237633  0.32806164  0.67796143     0.04900
C1495       C  0.13975748  0.36137945  0.68576347     0.27300
C1496       C  0.15509105  0.35749226  0.68956821    -0.13200
C1497       C  0.16514745  0.36876702  0.69550585     0.05400
C1498       C  0.15975560  0.38392811  0.69807386    -0.09100
C1499       C  0.14411578  0.38752030  0.69517720     0.06200
C1500       C  0.13416048  0.37627141  0.68899749    -0.13500
Br1501     Br  0.11804400  0.34234881  0.70774245    -0.05600
Br1502     Br  0.12619692  0.33375187  0.63165881     0.00100
Br1503     Br  0.18664815  0.36366443  0.69854462     0.00500
Br1504     Br  0.11291825  0.38127272  0.68463547    -0.03900
Br1505     Br  0.09965301  0.31380189  0.68934006     0.00600
Br1506     Br  0.14478267  0.36210706  0.64996135    -0.03200
Br1507     Br  0.16238508  0.33673250  0.68616350    -0.04100
Br1508     Br  0.13626281  0.40785865  0.69972012    -0.00100
C1509       C  0.07165231  0.25511246  0.83262742     0.01300
C1510       C  0.06622455  0.26911930  0.82624312     0.04200
C1511       C  0.05594109  0.27855711  0.83456253    -0.11900
C1512       C  0.05041351  0.27381116  0.84907982     0.23500
C1513       C  0.05516459  0.25949357  0.85517126    -0.12500
C1514       C  0.06592115  0.25027809  0.84711426     0.04900
C1515       C  0.03936859  0.28381513  0.85770660     0.27300
C1516       C  0.04473262  0.29391390  0.86925506    -0.13200
C1517       C  0.03437883  0.30391514  0.87685002     0.05400
C1518       C  0.01855309  0.30416364  0.87268477    -0.09100
C1519       C  0.01325599  0.29402115  0.86105552     0.06200
C1520       C  0.02357430  0.28371073  0.85384683    -0.13500
Br1521     Br  0.04682863  0.25257370  0.87459182    -0.05600
Br1522     Br  0.07196421  0.27503635  0.80561981     0.00100
Br1523     Br  0.04202800  0.31681683  0.89335740     0.00500
Br1524     Br  0.01618699  0.26939475  0.83849678    -0.03900
Br1525     Br  0.07335241  0.23148817  0.85644677     0.00600
Br1526     Br  0.04940363  0.29812675  0.82611663    -0.03200
Br1527     Br  0.06638385  0.29410156  0.87454201    -0.04100
Br1528     Br  0.99217151  0.29497411  0.85394179    -0.00100
C1529       C  0.10795252  0.24585628  0.76561289     0.01300
C1530       C  0.10424940  0.26098236  0.76104194     0.04200
C1531       C  0.10325892  0.26471089  0.74525948    -0.11900
C1532       C  0.10658888  0.25346069  0.73400362     0.23500
C1533       C  0.11111428  0.23854993  0.73859267    -0.12500
C1534       C  0.11183710  0.23477876  0.75436060     0.04900
C1535       C  0.10588258  0.25746689  0.71735669     0.27300
C1536       C  0.09175961  0.25674755  0.70935392    -0.13200
C1537       C  0.09104496  0.26085387  0.69364112     0.05400
C1538       C  0.10452246  0.26569601  0.68580958    -0.09100
C1539       C  0.11866903  0.26645620  0.69394965     0.06200
C1540       C  0.11933801  0.26219738  0.70961275    -0.13500
Br1541     Br  0.11642953  0.22335803  0.72322194    -0.05600
Br1542     Br  0.10084506  0.27663426  0.77638242     0.00100
Br1543     Br  0.07151362  0.25960898  0.68298626     0.00500
Br1544     Br  0.13865281  0.26313495  0.72070399    -0.03900
Br1545     Br  0.11944566  0.21484304  0.76053156     0.00600
Br1546     Br  0.09717536  0.28517302  0.73900510    -0.03200
Br1547     Br  0.07336966  0.25023831  0.72008720    -0.04100
Br1548     Br  0.13696280  0.27470914  0.68427810    -0.00100
C1549       C  0.97861296  0.24756751  0.12004230     0.01300
C1550       C  0.99379141  0.24839734  0.12609714     0.04200
C1551       C  0.00483961  0.25833508  0.11933673    -0.11900
C1552       C  0.00085420  0.26757127  0.10654232     0.23500
C1553       C  0.98581433  0.26672195  0.10045303    -0.12500
C1554       C  0.97480234  0.25674942  0.10706062     0.04900
C1555       C  0.01212863  0.27872618  0.09975907     0.27300
C1556       C  0.01288999  0.29392746  0.10544929    -0.13200
C1557       C  0.02219811  0.30501882  0.09804514     0.05400
C1558       C  0.03087753  0.30102087  0.08482875    -0.09100
C1559       C  0.03033114  0.28570855  0.07929720     0.06200
C1560       C  0.02102895  0.27460996  0.08677522    -0.13500
Br1561     Br  0.98019517  0.27976513  0.08326005    -0.05600
Br1562     Br  0.99926585  0.23697978  0.14442617     0.00100
Br1563     Br  0.02296781  0.32575659  0.10612629     0.00500
Br1564     Br  0.01981546  0.25388268  0.07883460    -0.03900
Br1565     Br  0.95456144  0.25564950  0.09789874     0.00600
Br1566     Br  0.02532819  0.25987279  0.12792349    -0.03200
Br1567     Br  0.00059673  0.29968121  0.12308081    -0.04100
Br1568     Br  0.04108211  0.28023944  0.06059783    -0.00100
C1569       C  0.01856022  0.20108114  0.37499548     0.01300
C1570       C  0.02535355  0.21211464  0.36502580     0.04200
C1571       C  0.01611033  0.22321232  0.35736793    -0.11900
C1572       C  0.99994139  0.22321807  0.35917821     0.23500
C1573       C  0.99309287  0.21219924  0.36896861    -0.12500
C1574       C  0.00230402  0.20135511  0.37698707     0.04900
C1575       C  0.99009972  0.23455436  0.35050566     0.27300
C1576       C  0.98494069  0.24825569  0.35764368    -0.13200
C1577       C  0.97523161  0.25863816  0.34958989     0.05400
C1578       C  0.97090749  0.25561063  0.33417227    -0.09100
C1579       C  0.97641692  0.24211305  0.32691941     0.06200
C1580       C  0.98574270  0.23154100  0.33510754    -0.13500
Br1581     Br  0.97092301  0.21193088  0.37120547    -0.05600
Br1582     Br  0.04720660  0.21155057  0.36087100     0.00100
Br1583     Br  0.96708226  0.27649053  0.36002838     0.00500
Br1584     Br  0.99231786  0.21268987  0.32532896    -0.03900
Br1585     Br  0.99241300  0.18743125  0.39126521     0.00600
Br1586     Br  0.02551187  0.23849216  0.34420228    -0.03200
Br1587     Br  0.99108737  0.25265905  0.37856684    -0.04100
Br1588     Br  0.97167470  0.23839364  0.30546770    -0.00100
C1589       C  0.94525842  0.26808546  0.26509432     0.01300
C1590       C  0.93745603  0.25488291  0.25940084     0.04200
C1591       C  0.93757833  0.25146436  0.24349941    -0.11900
C1592       C  0.94556603  0.26101587  0.23309644     0.23500
C1593       C  0.95346002  0.27405504  0.23860088    -0.12500
C1594       C  0.95357665  0.27749079  0.25451217     0.04900
C1595       C  0.94654453  0.25664968  0.21650174     0.27300
C1596       C  0.95860768  0.24708541  0.21148967    -0.13200
C1597       C  0.95902370  0.24169893  0.19615954     0.05400
C1598       C  0.94713096  0.24583482  0.18551485    -0.09100
C1599       C  0.93564884  0.25652287  0.19046146     0.06200
C1600       C  0.93536695  0.26174201  0.20590006    -0.13500
Br1601     Br  0.96392231  0.28731686  0.22406394    -0.05600
Br1602     Br  0.92734359  0.24064685  0.27324259     0.00100
Br1603     Br  0.97628230  0.22867474  0.19052387     0.00500
Br1604     Br  0.91962183  0.27592959  0.21279183    -0.03900
Br1605     Br  0.96517163  0.29531537  0.26122600     0.00600
Br1606     Br  0.92677212  0.23359113  0.23576868    -0.03200
Br1607     Br  0.97458329  0.24128161  0.22598247    -0.04100
Br1608     Br  0.92026885  0.26468977  0.17648416    -0.00100
C1609       C  0.60971918  0.26066494  0.18642440     0.01300
C1610       C  0.62097991  0.26668242  0.19655519     0.04200
C1611       C  0.62045416  0.26315055  0.21239564    -0.11900
C1612       C  0.60859086  0.25375191  0.21827611     0.23500
C1613       C  0.59730790  0.24774525  0.20819391    -0.12500
C1614       C  0.59793226  0.25109486  0.19228162     0.04900
C1615       C  0.60805099  0.25015466  0.23506173     0.27300
C1616       C  0.61698663  0.23795797  0.24106714    -0.13200
C1617       C  0.61643190  0.23446642  0.25692328     0.05400
C1618       C  0.60644819  0.24273535  0.26674490    -0.09100
C1619       C  0.59769257  0.25508297  0.26080596     0.06200
C1620       C  0.59873484  0.25899085  0.24504812    -0.13500
Br1621     Br  0.58086924  0.23513257  0.21630065    -0.05600
Br1622     Br  0.63655031  0.28072394  0.18903808     0.00100
Br1623     Br  0.62894510  0.21793380  0.26507804     0.00500
Br1624     Br  0.58748975  0.27646239  0.23706405    -0.03900
Br1625     Br  0.58294604  0.24215185  0.17844014     0.00600
Br1626     Br  0.63574766  0.27154665  0.22621843    -0.03200
Br1627     Br  0.62965508  0.22577165  0.22743006    -0.04100
Br1628     Br  0.58447507  0.26673533  0.27436155    -0.00100
C1629       C  0.56742718  0.24948938  0.33307534     0.01300
C1630       C  0.57189927  0.25670577  0.34701042     0.04200
C1631       C  0.56129829  0.26585587  0.35529258    -0.11900
C1632       C  0.54622013  0.26818373  0.34961747     0.23500
C1633       C  0.54159350  0.26064510  0.33594777    -0.12500
C1634       C  0.55213800  0.25133880  0.32769911     0.04900
C1635       C  0.53573058  0.27952228  0.35735251     0.27300
C1636       C  0.52427466  0.27461230  0.36780194    -0.13200
C1637       C  0.51448431  0.28548759  0.37504884     0.05400
C1638       C  0.51648757  0.30148365  0.37237455    -0.09100
C1639       C  0.52791828  0.30629874  0.36174087     0.06200
C1640       C  0.53739259  0.29538714  0.35426162    -0.13500
Br1641     Br  0.52084264  0.26340499  0.32837638    -0.05600
Br1642     Br  0.59252456  0.25388205  0.35505226     0.00100
Br1643     Br  0.49871161  0.27829181  0.38898681     0.00500
Br1644     Br  0.55284697  0.30214608  0.33970989    -0.03900
Br1645     Br  0.54591283  0.24214053  0.30841246     0.00600
Br1646     Br  0.56738876  0.27528791  0.37450650    -0.03200
Br1647     Br  0.52246109  0.25295503  0.37255802    -0.04100
Br1648     Br  0.53022466  0.32783861  0.35659066    -0.00100
C1649       C  0.55456451  0.37023040  0.60085632     0.01300
C1650       C  0.56189091  0.36497718  0.61457717     0.04200
C1651       C  0.56719197  0.37562413  0.62568473    -0.11900
C1652       C  0.56527443  0.39152360  0.62325156     0.23500
C1653       C  0.55658180  0.39672248  0.61054125    -0.12500
C1654       C  0.55120068  0.38618753  0.59937746     0.04900
C1655       C  0.57484710  0.40279927  0.63195879     0.27300
C1656       C  0.56895441  0.41096908  0.64474155    -0.13200
C1657       C  0.57726424  0.42356224  0.65085294     0.05400
C1658       C  0.59120550  0.42819078  0.64389580    -0.09100
C1659       C  0.59756837  0.41934696  0.63185359     0.06200
C1660       C  0.58956600  0.40650103  0.62614323    -0.13500
Br1661     Br  0.55319302  0.41859845  0.60788618    -0.05600
Br1662     Br  0.56500740  0.34325414  0.61843798     0.00100
Br1663     Br  0.56896601  0.43531626  0.66782402     0.00500
Br1664     Br  0.59845093  0.39434808  0.60976146    -0.03900
Br1665     Br  0.54051749  0.39427572  0.58155006     0.00600
Br1666     Br  0.57801620  0.36867376  0.64388137    -0.03200
Br1667     Br  0.54924122  0.40541540  0.65331582    -0.04100
Br1668     Br  0.61703881  0.42517492  0.62271931    -0.00100
C1669       C  0.53046318  0.34128611  0.51942381     0.01300
C1670       C  0.51978256  0.33031020  0.51395826     0.04200
C1671       C  0.51546595  0.33020742  0.49823697    -0.11900
C1672       C  0.52221998  0.34072239  0.48777464     0.23500
C1673       C  0.53301779  0.35158119  0.49326982    -0.12500
C1674       C  0.53692385  0.35202593  0.50906022     0.04900
C1675       C  0.51786231  0.34042699  0.47106396     0.27300
C1676       C  0.52489910  0.32983790  0.46088961    -0.13200
C1677       C  0.52022674  0.32908572  0.44529463     0.05400
C1678       C  0.50847987  0.33888101  0.43975487    -0.09100
C1679       C  0.50165998  0.34968830  0.44982657     0.06200
C1680       C  0.50649568  0.35061012  0.46535686    -0.13500
Br1681     Br  0.54279003  0.36558867  0.47904960    -0.05600
Br1682     Br  0.51086558  0.31563128  0.52811883     0.00100
Br1683     Br  0.53013797  0.31490377  0.43131906     0.00500
Br1684     Br  0.49761602  0.36588110  0.47886970    -0.03900
Br1685     Br  0.55174220  0.36693218  0.51640929     0.00600
Br1686     Br  0.50022729  0.31571508  0.49099173    -0.03200
Br1687     Br  0.54112255  0.31653308  0.46830253    -0.04100
Br1688     Br  0.48498830  0.36257827  0.44258791    -0.00100
C1689       C  0.52610698  0.30645337  0.58613653     0.01300
C1690       C  0.52433472  0.29155191  0.57989715     0.04200
C1691       C  0.51513894  0.28055172  0.58756000    -0.11900
C1692       C  0.50730227  0.28451700  0.60124553     0.23500
C1693       C  0.50928837  0.29932460  0.60763822    -0.12500
C1694       C  0.51873140  0.31023071  0.60016029     0.04900
C1695       C  0.49643663  0.27333590  0.60847483     0.27300
C1696       C  0.48115784  0.27223365  0.60301451    -0.13200
C1697       C  0.47093116  0.26138002  0.60946523     0.05400
C1698       C  0.47568246  0.25200542  0.62196476    -0.09100
C1699       C  0.49105705  0.25308175  0.62736078     0.06200
C1700       C  0.50139559  0.26364843  0.62055643    -0.13500
Br1701     Br  0.49884482  0.30471089  0.62653034    -0.05600
Br1702     Br  0.53338287  0.28660633  0.56019448     0.00100
Br1703     Br  0.45073093  0.25874397  0.60038819     0.00500
Br1704     Br  0.52234049  0.26518088  0.62794807    -0.03900
Br1705     Br  0.52173933  0.33032203  0.60929262     0.00600
Br1706     Br  0.51302899  0.26004185  0.57925133    -0.03200
Br1707     Br  0.47417482  0.28593707  0.58687892    -0.04100
Br1708     Br  0.49792578  0.24070664  0.64456017    -0.00100
C1709       C  0.43865153  0.26660814  0.76753535     0.01300
C1710       C  0.43046590  0.27559200  0.75671174     0.04200
C1711       C  0.43072084  0.27164633  0.74095873    -0.11900
C1712       C  0.43825474  0.25807885  0.73609295     0.23500
C1713       C  0.44559123  0.24855372  0.74710623    -0.12500
C1714       C  0.44622898  0.25309027  0.76271288     0.04900
C1715       C  0.43884514  0.25406482  0.71938503     0.27300
C1716       C  0.42587954  0.24759650  0.71198451    -0.13200
C1717       C  0.42657604  0.24361949  0.69622990     0.05400
C1718       C  0.44039281  0.24584250  0.68782868    -0.09100
C1719       C  0.45322352  0.25267549  0.69517875     0.06200
C1720       C  0.45243004  0.25679195  0.71087190    -0.13500
Br1721     Br  0.45459813  0.22922703  0.74077607    -0.05600
Br1722     Br  0.41884247  0.29330471  0.76349081     0.00100
Br1723     Br  0.40875366  0.23430822  0.68658404     0.00500
Br1724     Br  0.47003246  0.26612910  0.72080571    -0.03900
Br1725     Br  0.45747056  0.24087284  0.77753619     0.00600
Br1726     Br  0.42116798  0.28507580  0.72596577    -0.03200
Br1727     Br  0.40731567  0.24368281  0.72364153    -0.04100
Br1728     Br  0.47177610  0.25698829  0.68362428    -0.00100
C1729       C  0.43327532  0.32870432  0.79724372     0.01300
C1730       C  0.43671362  0.33328227  0.78202221     0.04200
C1731       C  0.42975026  0.34658578  0.77572804    -0.11900
C1732       C  0.41973695  0.35561069  0.78481403     0.23500
C1733       C  0.41730473  0.35171431  0.80040619    -0.12500
C1734       C  0.42374358  0.33810095  0.80649016     0.04900
C1735       C  0.41038048  0.36810569  0.77765611     0.27300
C1736       C  0.41642608  0.38305822  0.77585995    -0.13200
C1737       C  0.40723110  0.39486434  0.76946105     0.05400
C1738       C  0.39152901  0.39208604  0.76596679    -0.09100
C1739       C  0.38542263  0.37709502  0.76813482     0.06200
C1740       C  0.39502429  0.36505209  0.77329060    -0.13500
Br1741     Br  0.40438474  0.36465537  0.81311594    -0.05600
Br1742     Br  0.45003504  0.32069515  0.76945971     0.00100
Br1743     Br  0.41641032  0.41465969  0.76507964     0.00500
Br1744     Br  0.38707726  0.34428657  0.77477720    -0.03900
Br1745     Br  0.41863798  0.33177338  0.82720568     0.00600
Br1746     Br  0.43291380  0.35185880  0.75434555    -0.03200
Br1747     Br  0.43708336  0.38745770  0.78284834    -0.04100
Br1748     Br  0.36357713  0.37312783  0.76592787    -0.00100
C1749       C  0.57914906  0.25292201  0.11756622     0.01300
C1750       C  0.56373345  0.25159551  0.12258892     0.04200
C1751       C  0.55353972  0.24159171  0.11490708    -0.11900
C1752       C  0.55866047  0.23292599  0.10215856     0.23500
C1753       C  0.57395265  0.23451059  0.09689205    -0.12500
C1754       C  0.58421629  0.24444159  0.10461318     0.04900
C1755       C  0.54822903  0.22128803  0.09516966     0.27300
C1756       C  0.54819428  0.20612739  0.10096642    -0.13200
C1757       C  0.53752003  0.19527990  0.09530448     0.05400
C1758       C  0.52690066  0.19949787  0.08362628    -0.09100
C1759       C  0.52707878  0.21470481  0.07775437     0.06200
C1760       C  0.53778496  0.22552958  0.08346124    -0.13500
Br1761     Br  0.58091563  0.22268146  0.07939341    -0.05600
Br1762     Br  0.55686901  0.26234715  0.14084359     0.00100
Br1763     Br  0.53699289  0.17492246  0.10429881     0.00500
Br1764     Br  0.53846598  0.24613796  0.07509595    -0.03900
Br1765     Br  0.60520164  0.24643759  0.09732983     0.00600
Br1766     Br  0.53270395  0.23908120  0.12230998    -0.03200
Br1767     Br  0.56290177  0.20034989  0.11672955    -0.04100
Br1768     Br  0.51315457  0.22064316  0.06142371    -0.00100
C1769       C  0.52298633  0.20291652  0.87306048     0.01300
C1770       C  0.51484056  0.19952999  0.85934810     0.04200
C1771       C  0.50530957  0.21076331  0.85242412    -0.11900
C1772       C  0.50362252  0.22543071  0.85920892     0.23500
C1773       C  0.51188523  0.22891966  0.87281440    -0.12500
C1774       C  0.52162897  0.21774529  0.87965170     0.04900
C1775       C  0.49303850  0.23698656  0.85192663     0.27300
C1776       C  0.49849812  0.24689629  0.84024746    -0.13200
C1777       C  0.48818469  0.25660504  0.83213186     0.05400
C1778       C  0.47230001  0.25677089  0.83587272    -0.09100
C1779       C  0.46690458  0.24692177  0.84775129     0.06200
C1780       C  0.47720190  0.23701748  0.85561265    -0.13500
Br1781     Br  0.50965621  0.24894565  0.88217729    -0.05600
Br1782     Br  0.51717635  0.17966925  0.84959777     0.00100
Br1783     Br  0.49567809  0.26841314  0.81483693     0.00500
Br1784     Br  0.46956104  0.22292393  0.87107028    -0.03900
Br1785     Br  0.53254305  0.22252097  0.89847446     0.00600
Br1786     Br  0.49450159  0.20616257  0.83349854    -0.03200
Br1787     Br  0.52010050  0.24650787  0.83492014    -0.04100
Br1788     Br  0.44538915  0.24694784  0.85353603    -0.00100
C1789       C  0.53262587  0.16628258  0.93903110     0.01300
C1790       C  0.54353541  0.16134935  0.95006847     0.04200
C1791       C  0.53985075  0.16156299  0.96584701    -0.11900
C1792       C  0.52509054  0.16632388  0.97063664     0.23500
C1793       C  0.51395977  0.17071363  0.95959772    -0.12500
C1794       C  0.51778639  0.17085488  0.94379848     0.04900
C1795       C  0.52123592  0.16627869  0.98729137     0.27300
C1796       C  0.51502139  0.15292343  0.99409938    -0.13200
C1797       C  0.51138891  0.15278568  0.00990955     0.05400
C1798       C  0.51474752  0.16577511  0.01914877    -0.09100
C1799       C  0.52146148  0.17897225  0.01236814     0.06200
C1800       C  0.52422740  0.17938520  0.99638865    -0.13500
Br1801     Br  0.49350264  0.17640349  0.96623474    -0.05600
Br1802     Br  0.56334167  0.15363963  0.94356842     0.00100
Br1803     Br  0.50070532  0.13521549  0.01844929     0.00500
Br1804     Br  0.53174427  0.19801742  0.98683294    -0.03900
Br1805     Br  0.50288102  0.17755900  0.92870970     0.00600
Br1806     Br  0.55494968  0.15521939  0.98098786    -0.03200
Br1807     Br  0.51130905  0.13491270  0.98157630    -0.04100
Br1808     Br  0.52764746  0.19623024  0.02502126    -0.00100
C1809       C  0.05587307  0.13276375  0.36799510     0.01300
C1810       C  0.05776298  0.13504580  0.35199211     0.04200
C1811       C  0.06425476  0.12333804  0.34279036    -0.11900
C1812       C  0.06860501  0.10917215  0.34946711     0.23500
C1813       C  0.06649275  0.10676695  0.36541931    -0.12500
C1814       C  0.06033871  0.11858381  0.37470351     0.04900
C1815       C  0.07581870  0.09689449  0.33989723     0.27300
C1816       C  0.06649614  0.08650192  0.33155942    -0.13200
C1817       C  0.07323380  0.07375403  0.32411387     0.05400
C1818       C  0.08928437  0.07136625  0.32491560    -0.09100
C1819       C  0.09872241  0.08225230  0.33243101     0.06200
C1820       C  0.09199433  0.09501084  0.33992236    -0.13500
Br1821     Br  0.07254920  0.08737923  0.37460912    -0.05600
Br1822     Br  0.05120805  0.15413679  0.34259954     0.00100
Br1823     Br  0.06046108  0.05901224  0.31339150     0.00500
Br1824     Br  0.10477138  0.10947112  0.35102622    -0.03900
Br1825     Br  0.05942226  0.11572790  0.39680505     0.00600
Br1826     Br  0.06770446  0.12682375  0.32110445    -0.03200
Br1827     Br  0.04442066  0.08923758  0.33108745    -0.04100
Br1828     Br  0.12073534  0.07909871  0.33333303    -0.00100
C1829       C  0.98079296  0.99165038  0.30791639     0.01300
C1830       C  0.98767196  0.00255355  0.29801096     0.04200
C1831       C  0.00322372  0.00689787  0.30018297    -0.11900
C1832       C  0.01236460  0.99947198  0.31147665     0.23500
C1833       C  0.00556299  0.98823455  0.32109056    -0.12500
C1834       C  0.98978625  0.98458138  0.31951965     0.04900
C1835       C  0.02924027  0.00293091  0.31269276     0.27300
C1836       C  0.03952974  0.99739781  0.30134297    -0.13200
C1837       C  0.05531675  0.00132285  0.30192752     0.05400
C1838       C  0.06110876  0.01017255  0.31428596    -0.09100
C1839       C  0.05099213  0.01493963  0.32613448     0.06200
C1840       C  0.03506595  0.01170213  0.32511627    -0.13500
Br1841     Br  0.01797899  0.97743797  0.33610865    -0.05600
Br1842     Br  0.97592758  0.01131538  0.28128295     0.00100
Br1843     Br  0.06913480  0.99409671  0.28604876     0.00500
Br1844     Br  0.02114328  0.01974653  0.34049893    -0.03900
Br1845     Br  0.98072096  0.96902428  0.33262418     0.00600
Br1846     Br  0.01199600  0.02322744  0.28786011    -0.03200
Br1847     Br  0.03197869  0.98420724  0.28508340    -0.04100
Br1848     Br  0.05878233  0.02646304  0.34354174    -0.00100
C1849       C  0.16563763  0.95304511  0.22756340     0.01300
C1850       C  0.17157897  0.96815984  0.22928169     0.04200
C1851       C  0.16429720  0.97876760  0.23927900    -0.11900
C1852       C  0.15076123  0.97460075  0.24724085     0.23500
C1853       C  0.14458668  0.95971568  0.24527491    -0.12500
C1854       C  0.15205687  0.94892022  0.23566626     0.04900
C1855       C  0.14373002  0.98537216  0.25868580     0.27300
C1856       C  0.14848860  0.98474971  0.27420977    -0.13200
C1857       C  0.14152707  0.99435748  0.28530438     0.05400
C1858       C  0.12958577  0.00464460  0.28099623    -0.09100
C1859       C  0.12536195  0.00580496  0.26527017     0.06200
C1860       C  0.13226575  0.99603423  0.25420956    -0.13500
Br1861     Br  0.12604526  0.95404431  0.25622613    -0.05600
Br1862     Br  0.19032863  0.97417950  0.21892276     0.00100
Br1863     Br  0.14906950  0.99388631  0.30628105     0.00500
Br1864     Br  0.12562899  0.99678084  0.23298428    -0.03900
Br1865     Br  0.14335932  0.92852294  0.23361431     0.00600
Br1866     Br  0.17328599  0.99880155  0.24289418    -0.03200
Br1867     Br  0.16445281  0.97040936  0.28024668    -0.04100
Br1868     Br  0.10972291  0.02030478  0.25880508    -0.00100
C1869       C  0.23161388  0.91504831  0.22067827     0.01300
C1870       C  0.23804268  0.92607765  0.23078078     0.04200
C1871       C  0.25360390  0.92486314  0.23541733    -0.11900
C1872       C  0.26288943  0.91276039  0.22981121     0.23500
C1873       C  0.25632165  0.90134231  0.22031807    -0.12500
C1874       C  0.24077043  0.90252392  0.21565715     0.04900
C1875       C  0.27976252  0.91261579  0.23306955     0.27300
C1876       C  0.29001712  0.92003254  0.22282211    -0.13200
C1877       C  0.30594102  0.92036064  0.22602750     0.05400
C1878       C  0.31161450  0.91362947  0.23964310    -0.09100
C1879       C  0.30150977  0.90572401  0.24962554     0.06200
C1880       C  0.28559099  0.90521728  0.24634491    -0.13500
Br1881     Br  0.26883418  0.88421463  0.21357159    -0.05600
Br1882     Br  0.22549443  0.94276970  0.23843436     0.00100
Br1883     Br  0.32016237  0.92970918  0.21170235     0.00500
Br1884     Br  0.27170031  0.89470027  0.26015203    -0.03900
Br1885     Br  0.23250124  0.88763070  0.20133714     0.00600
Br1886     Br  0.26234885  0.93976592  0.24943692    -0.03200
Br1887     Br  0.28217227  0.93012849  0.20461147    -0.04100
Br1888     Br  0.30950316  0.89569195  0.26784332    -0.00100
C1889       C  0.37708342  0.95361071  0.22849747     0.01300
C1890       C  0.38866871  0.94910234  0.21793916     0.04200
C1891       C  0.39568712  0.96010274  0.20822499    -0.11900
C1892       C  0.39109555  0.97569751  0.20879639     0.23500
C1893       C  0.37947479  0.98021294  0.21925132    -0.12500
C1894       C  0.37263931  0.96927647  0.22921531     0.04900
C1895       C  0.39839336  0.98728555  0.19828985     0.27300
C1896       C  0.41030138  0.99695004  0.20369668    -0.13200
C1897       C  0.41749471  0.00760076  0.19366293     0.05400
C1898       C  0.41306727  0.00843227  0.17793285    -0.09100
C1899       C  0.40061908  0.99917089  0.17277087     0.06200
C1900       C  0.39338451  0.98866236  0.18288537    -0.13500
Br1901     Br  0.37257404  0.00136357  0.21944371    -0.05600
Br1902     Br  0.39544684  0.92787876  0.21710433     0.00100
Br1903     Br  0.43363648  0.02067271  0.20168474     0.00500
Br1904     Br  0.37641512  0.97613622  0.17573109    -0.03900
Br1905     Br  0.35660968  0.97572173  0.24322630     0.00600
Br1906     Br  0.41159346  0.95379201  0.19399847    -0.03200
Br1907     Br  0.41690206  0.99531467  0.22491256    -0.04100
Br1908     Br  0.39254805  0.00150588  0.15213000    -0.00100
C1909       C  0.45647167  0.07916004  0.14495894     0.01300
C1910       C  0.44819517  0.09102959  0.13756728     0.04200
C1911       C  0.45617352  0.10319528  0.13040849    -0.11900
C1912       C  0.47243775  0.10351115  0.13075946     0.23500
C1913       C  0.48060206  0.09248458  0.13947772    -0.12500
C1914       C  0.47260652  0.08025993  0.14651953     0.04900
C1915       C  0.48086946  0.11413043  0.12035687     0.27300
C1916       C  0.48548605  0.10890104  0.10568025    -0.13200
C1917       C  0.49183363  0.11928724  0.09494702    -0.23400
C1918       C  0.49353084  0.13503232  0.09889496    -0.09100
C1919       C  0.49009946  0.13988781  0.11408398     0.06200
C1920       C  0.48356161  0.12950398  0.12469600    -0.13500
Br1921     Br  0.50281379  0.09340588  0.14048141    -0.05600
Br1922     Br  0.42602815  0.08972678  0.13594935     0.00100
Br1923     Br  0.49698739  0.11183916  0.07458230     0.00500
Br1924     Br  0.47756224  0.13641451  0.14496215    -0.03900
Br1925     Br  0.48380509  0.06415366  0.15703494     0.00600
Br1926     Br  0.44496042  0.11860684  0.11885583    -0.03200
Br1927     Br  0.48217419  0.08759301  0.10000344    -0.04100
Br1928     Br  0.49464332  0.16068816  0.12058368    -0.00100
C1929       C  0.56038330  0.99947396  0.13722199     0.01300
C1930       C  0.55073400  0.99361122  0.12547851     0.04200
C1931       C  0.53478525  0.99684217  0.12564307    -0.11900
C1932       C  0.52851855  0.00645045  0.13717114     0.23500
C1933       C  0.53836620  0.01312226  0.14828337    -0.12500
C1934       C  0.55422609  0.00953966  0.14837954     0.04900
C1935       C  0.51161421  0.00963061  0.13764497     0.27300
C1936       C  0.50515877  0.02102676  0.12800000    -0.13200
C1937       C  0.48928207  0.02448308  0.12888950     0.05400
C1938       C  0.47990092  0.01707111  0.13997553    -0.09100
C1939       C  0.48636689  0.00564601  0.14958356     0.06200
C1940       C  0.50208752  0.00168537  0.14817560    -0.13500
Br1941     Br  0.53001997  0.02702424  0.16350146    -0.05600
Br1942     Br  0.55919682  0.98064314  0.10947977     0.00100
Br1943     Br  0.48069811  0.04008258  0.11549210     0.00500
Br1944     Br  0.51069683  0.98550466  0.16081059    -0.03900
Br1945     Br  0.56770915  0.01878776  0.16348578     0.00600
Br1946     Br  0.52137093  0.98758429  0.11048710    -0.03200
Br1947     Br  0.51833527  0.03246385  0.11416967    -0.04100
Br1948     Br  0.47361183  0.99538154  0.16463966    -0.00100
C1949       C  0.65036020  0.11803234  0.26294236     0.01300
C1950       C  0.63534233  0.11390681  0.26783902     0.04200
C1951       C  0.62492413  0.12538737  0.27271570    -0.11900
C1952       C  0.62951637  0.14094214  0.27291223     0.23500
C1953       C  0.64422317  0.14513431  0.26745501    -0.12500
C1954       C  0.65466556  0.13375708  0.26256896     0.04900
C1955       C  0.61975086  0.15289008  0.28028000     0.27300
C1956       C  0.61036691  0.16260014  0.27121038    -0.13200
C1957       C  0.60399619  0.17608117  0.27768876     0.05400
C1958       C  0.60697324  0.17977242  0.29324557    -0.09100
C1959       C  0.61549597  0.16948870  0.30252897     0.06200
C1960       C  0.62177497  0.15601189  0.29609702    -0.13500
Br1961     Br  0.65030980  0.16657041  0.26741533    -0.05600
Br1962     Br  0.62889519  0.09259094  0.26800284     0.00100
Br1963     Br  0.59244887  0.19019476  0.26494179     0.00500
Br1964     Br  0.63422153  0.14239742  0.30863342    -0.03900
Br1965     Br  0.67537530  0.13991967  0.25699013     0.00600
Br1966     Br  0.60445515  0.11990912  0.27946952    -0.03200
Br1967     Br  0.60730393  0.15791284  0.24968165    -0.04100
Br1968     Br  0.61946075  0.17442357  0.32385880    -0.00100
C1969       C  0.62337881  0.00397891  0.17746440     0.01300
C1970       C  0.61674080  0.00434674  0.19238726     0.04200
C1971       C  0.62324070  0.01369235  0.20406007    -0.11900
C1972       C  0.63644515  0.02264004  0.20098218     0.23500
C1973       C  0.64317956  0.02217967  0.18621738    -0.12500
C1974       C  0.63673591  0.01290085  0.17452884     0.04900
C1975       C  0.64330610  0.03275531  0.21309277     0.27300
C1976       C  0.63847127  0.04819651  0.21443634    -0.13200
C1977       C  0.64622277  0.05831338  0.22452376     0.05400
C1978       C  0.65926782  0.05321126  0.23295995    -0.09100
C1979       C  0.66356877  0.03751153  0.23220213     0.06200
C1980       C  0.65549732  0.02730908  0.22240253    -0.13500
Br1981     Br  0.66128093  0.03449259  0.18206170    -0.05600
Br1982     Br  0.59825652  0.99277375  0.19678736     0.00100
Br1983     Br  0.63850111  0.07904974  0.22710817     0.00500
Br1984     Br  0.66143150  0.00591346  0.22117944    -0.03900
Br1985     Br  0.64682310  0.01203180  0.15471188     0.00600
Br1986     Br  0.61396082  0.01459580  0.22426203    -0.03200
Br1987     Br  0.62154750  0.05557794  0.20193717    -0.04100
Br1988     Br  0.68117663  0.03009158  0.24362407    -0.00100
C1989       C  0.88609915  0.12113771  0.19127386     0.01300
C1990       C  0.88163717  0.13672084  0.18932748     0.04200
C1991       C  0.89261053  0.14789043  0.18492397    -0.11900
C1992       C  0.90820456  0.14373941  0.18279734     0.23500
C1993       C  0.91289427  0.12848065  0.18582060    -0.12500
C1994       C  0.90187059  0.11714623  0.18974912     0.04900
C1995       C  0.91926544  0.15530284  0.17640511     0.27300
C1996       C  0.92200281  0.15587376  0.16035934    -0.13200
C1997       C  0.92991899  0.16850554  0.15382883     0.05400
C1998       C  0.93505870  0.18067229  0.16331650    -0.09100
C1999       C  0.93324846  0.17956382  0.17945589     0.06200
C2000       C  0.92563041  0.16677799  0.18599786    -0.13500
Br2001     Br  0.93448057  0.12323732  0.18452154    -0.05600
Br2002     Br  0.86030095  0.14281606  0.19147866     0.00100
Br2003     Br  0.93220718  0.16991866  0.13173477     0.00500
Br2004     Br  0.92336983  0.16519919  0.20805644    -0.03900
Br2005     Br  0.90853917  0.09618827  0.19320785     0.00600
Br2006     Br  0.88617880  0.16889418  0.18113667    -0.03200
Br2007     Br  0.91403762  0.13976370  0.14723968    -0.04100
Br2008     Br  0.94062525  0.19599995  0.19253811    -0.00100
C2009       C  0.87275523  0.05393069  0.22098962     0.01300
C2010       C  0.86801190  0.05132029  0.23642747     0.04200
C2011       C  0.87574316  0.04040533  0.24575817    -0.11900
C2012       C  0.88820724  0.03182112  0.23983348     0.23500
C2013       C  0.89267007  0.03400748  0.22434656    -0.12500
C2014       C  0.88516821  0.04512517  0.21502386     0.04900
C2015       C  0.89713287  0.02115739  0.25016495     0.27300
C2016       C  0.90967432  0.02685073  0.25878741    -0.13200
C2017       C  0.91793719  0.01706893  0.26888359     0.05400
C2018       C  0.91367026  0.00137328  0.27068470    -0.09100
C2019       C  0.90110929  0.99566794  0.26187953     0.06200
C2020       C  0.89293936  0.00552138  0.25167955    -0.13500
Br2021     Br  0.90924982  0.02175086  0.21600636    -0.05600
Br2022     Br  0.85061512  0.06228477  0.24497341     0.00100
Br2023     Br  0.93546596  0.02539614  0.27981558     0.00500
Br2024     Br  0.87561206  0.99784394  0.24000039    -0.03900
Br2025     Br  0.89290757  0.04900319  0.19450574     0.00600
Br2026     Br  0.86932456  0.03717397  0.26682947    -0.03200
Br2027     Br  0.91532285  0.04831457  0.25691342    -0.04100
Br2028     Br  0.89422225  0.97468491  0.26443128    -0.00100
C2029       C  0.80596111  0.09004898  0.21017178     0.01300
C2030       C  0.79947899  0.07850565  0.21964062     0.04200
C2031       C  0.78373861  0.07908724  0.22368043    -0.11900
C2032       C  0.77421777  0.09100015  0.21799565     0.23500
C2033       C  0.78049187  0.10214859  0.20794523    -0.12500
C2034       C  0.79634801  0.10179532  0.20419450     0.04900
C2035       C  0.75767261  0.09169915  0.22274506     0.27300
C2036       C  0.74673340  0.08178964  0.21587248    -0.13200
C2037       C  0.73161091  0.08092773  0.22178573     0.05400
C2038       C  0.72709169  0.09057364  0.23403057    -0.09100
C2039       C  0.73773637  0.10112976  0.24033990     0.06200
C2040       C  0.75309654  0.10139917  0.23499069    -0.13500
Br2041     Br  0.76714787  0.11741958  0.19876010    -0.05600
Br2042     Br  0.81214854  0.06192793  0.22731675     0.00100
Br2043     Br  0.71705227  0.06640906  0.21328795     0.00500
Br2044     Br  0.76813312  0.11430645  0.24511257    -0.03900
Br2045     Br  0.80466046  0.11680394  0.18999645     0.00600
Br2046     Br  0.77507029  0.06341207  0.23691212    -0.03200
Br2047     Br  0.75263401  0.06911259  0.19860371    -0.04100
Br2048     Br  0.73150180  0.11455689  0.25698297    -0.00100
C2049       C  0.90475814  0.29091691  0.34094276     0.01300
C2050       C  0.90624198  0.28924366  0.35705000     0.04200
C2051       C  0.89488795  0.29529869  0.36696702    -0.11900
C2052       C  0.88193151  0.30297927  0.36082903     0.23500
C2053       C  0.88026104  0.30438517  0.34470076    -0.12500
C2054       C  0.89165866  0.29841270  0.33477717     0.04900
C2055       C  0.86972578  0.30903743  0.37126346     0.27300
C2056       C  0.85764376  0.29927704  0.37599144    -0.13200
C2057       C  0.84535128  0.30522406  0.38472568     0.05400
C2058       C  0.84476537  0.32105532  0.38832854    -0.09100
C2059       C  0.85743346  0.33057229  0.38472038     0.06200
C2060       C  0.86989955  0.32457352  0.37612526    -0.13500
Br2061     Br  0.86241947  0.31473360  0.33624690    -0.05600
Br2062     Br  0.92362559  0.27822006  0.36548420     0.00100
Br2063     Br  0.82920180  0.29169431  0.39189237     0.00500
Br2064     Br  0.88680746  0.33775883  0.37023224    -0.03900
Br2065     Br  0.88970882  0.30137012  0.31277401     0.00600
Br2066     Br  0.89707092  0.29324907  0.38900669    -0.03200
Br2067     Br  0.85748168  0.27796012  0.36966007    -0.04100
Br2068     Br  0.85731363  0.35192487  0.39086940    -0.00100
C2069       C  0.70353068  0.09602089  0.29884490     0.01300
C2070       C  0.69527564  0.10609862  0.30856149     0.04200
C2071       C  0.70274175  0.11336710  0.32100933    -0.11900
C2072       C  0.71858060  0.11074335  0.32374829     0.23500
C2073       C  0.72664679  0.10004685  0.31450566    -0.12500
C2074       C  0.71909126  0.09261471  0.30213618     0.04900
C2075       C  0.72675694  0.11993139  0.33579227     0.27300
C2076       C  0.73130603  0.13520478  0.33257848    -0.13200
C2077       C  0.73706381  0.14472635  0.34444320     0.05400
C2078       C  0.73835543  0.13898061  0.35969928    -0.09100
C2079       C  0.73504945  0.12326255  0.36254218     0.06200
C2080       C  0.72907817  0.11385203  0.35068501    -0.13500
Br2081     Br  0.74826167  0.09633506  0.31822981    -0.05600
Br2082     Br  0.67374813  0.11027055  0.30450073     0.00100
Br2083     Br  0.74185142  0.16597628  0.33971224     0.00500
Br2084     Br  0.72334028  0.09279754  0.35495556    -0.03900
Br2085     Br  0.73031711  0.07869007  0.28893595     0.00600
Br2086     Br  0.69142500  0.12753011  0.33388901    -0.03200
Br2087     Br  0.72881490  0.14331103  0.31196098    -0.04100
Br2088     Br  0.73903725  0.11442521  0.38259793    -0.00100
C2089       C  0.75703487  0.21664831  0.39291157     0.01300
C2090       C  0.74632924  0.22894780  0.39300167     0.04200
C2091       C  0.75154702  0.24432476  0.39242633    -0.11900
C2092       C  0.76748202  0.24755715  0.39227793     0.23500
C2093       C  0.77818196  0.23529811  0.39205685    -0.12500
C2094       C  0.77297462  0.21989740  0.39220010     0.04900
C2095       C  0.77290098  0.26384967  0.39314058     0.27300
C2096       C  0.77756450  0.27175566  0.37973151    -0.13200
C2097       C  0.78266322  0.28718678  0.38066851     0.05400
C2098       C  0.78250286  0.29505841  0.39498280    -0.09100
C2099       C  0.77749695  0.28713107  0.40834196     0.06200
C2100       C  0.77306753  0.27152376  0.40745524    -0.13500
Br2101     Br  0.80000578  0.23964857  0.39192534    -0.05600
Br2102     Br  0.72444944  0.22485505  0.39347797     0.00100
Br2103     Br  0.79090974  0.29696231  0.36244009     0.00500
Br2104     Br  0.76739041  0.26043894  0.42592811    -0.03900
Br2105     Br  0.78777347  0.20327364  0.39232511     0.00600
Br2106     Br  0.73690318  0.26110104  0.39172921    -0.03200
Br2107     Br  0.77699423  0.26129400  0.36009064    -0.04100
Br2108     Br  0.77589692  0.29772083  0.42785901    -0.00100
C2109       C  0.63018939  0.21503683  0.34703434     0.01300
C2110       C  0.64503762  0.22192496  0.34766701     0.04200
C2111       C  0.65685103  0.21516084  0.35658635    -0.11900
C2112       C  0.65384060  0.20203236  0.36564386     0.23500
C2113       C  0.63864931  0.19647827  0.36680474    -0.12500
C2114       C  0.62678322  0.20302297  0.35772100     0.04900
C2115       C  0.66688642  0.19392340  0.37343114     0.27300
C2116       C  0.67469437  0.18201428  0.36562559    -0.13200
C2117       C  0.68882316  0.17639732  0.37138261     0.05400
C2118       C  0.69509854  0.18239132  0.38518693    -0.09100
C2119       C  0.68644689  0.19314785  0.39381379     0.06200
C2120       C  0.67244995  0.19903098  0.38784100    -0.13500
Br2121     Br  0.63430749  0.17963046  0.38069746    -0.05600
Br2122     Br  0.64945332  0.24109898  0.33718259     0.00100
Br2123     Br  0.69960464  0.16041859  0.36027588     0.00500
Br2124     Br  0.66114896  0.21461908  0.39894072    -0.03900
Br2125     Br  0.60595057  0.19566146  0.36083567     0.00600
Br2126     Br  0.67748493  0.22356128  0.35604095    -0.03200
Br2127     Br  0.66621337  0.17376989  0.34673836    -0.04100
Br2128     Br  0.69416329  0.20060294  0.41326984    -0.00100
C2129       C  0.88691305  0.12162746  0.51322259     0.01300
C2130       C  0.88365445  0.13756985  0.51269273     0.04200
C2131       C  0.89483004  0.14834224  0.51752488    -0.11900
C2132       C  0.90933456  0.14321529  0.52279631     0.23500
C2133       C  0.91287597  0.12734828  0.52257715    -0.12500
C2134       C  0.90164196  0.11655783  0.51801037     0.04900
C2135       C  0.92082683  0.15425567  0.52911953     0.27300
C2136       C  0.93294136  0.15961421  0.51972410    -0.13200
C2137       C  0.94545078  0.16753118  0.52638070     0.05400
C2138       C  0.94592908  0.17003340  0.54245225    -0.09100
C2139       C  0.93322593  0.16583370  0.55163698     0.06200
C2140       C  0.92073025  0.15783887  0.54500229    -0.13500
Br2141     Br  0.93314469  0.12044157  0.52883284    -0.05600
Br2142     Br  0.86396160  0.14464641  0.50502846     0.00100
Br2143     Br  0.96237894  0.17430155  0.51361822     0.00500
Br2144     Br  0.90426545  0.15034723  0.55793601    -0.03900
Br2145     Br  0.90610689  0.09480707  0.51964102     0.00600
Br2146     Br  0.89032988  0.17010675  0.51701324    -0.03200
Br2147     Br  0.93307429  0.15472418  0.49801580    -0.04100
Br2148     Br  0.93378471  0.16950393  0.57358782    -0.00100
C2149       C  0.81900513  0.11146471  0.48071771     0.01300
C2150       C  0.80739603  0.12088114  0.48734579     0.04200
C2151       C  0.79675370  0.12886212  0.47782191    -0.11900
C2152       C  0.79736911  0.12734327  0.46162769     0.23500
C2153       C  0.80874678  0.11781255  0.45501984    -0.12500
C2154       C  0.81946252  0.10991804  0.46443585     0.04900
C2155       C  0.78636844  0.13601118  0.45141621     0.27300
C2156       C  0.77209763  0.12945864  0.44708146    -0.13200
C2157       C  0.76220401  0.13723445  0.43665378     0.05400
C2158       C  0.76663332  0.15152263  0.43017837    -0.09100
C2159       C  0.78073803  0.15825491  0.43489181     0.06200
C2160       C  0.79053240  0.15053845  0.44541576    -0.13500
Br2161     Br  0.80973302  0.11577700  0.43286716    -0.05600
Br2162     Br  0.80635658  0.12359788  0.50941943     0.00100
Br2163     Br  0.74296353  0.12782157  0.43060985     0.00500
Br2164     Br  0.80996032  0.15964252  0.45137533    -0.03900
Br2165     Br  0.83430416  0.09643564  0.45472415     0.00600
Br2166     Br  0.78156157  0.14236861  0.48685466    -0.03200
Br2167     Br  0.76647701  0.10943442  0.45492663    -0.04100
Br2168     Br  0.78645745  0.17840628  0.42744458    -0.00100
C2169       C  0.85179716  0.96664931  0.46275942     0.01300
C2170       C  0.84108598  0.97231105  0.47360298     0.04200
C2171       C  0.84186674  0.98777956  0.47858260    -0.11900
C2172       C  0.85297204  0.99787725  0.47230400     0.23500
C2173       C  0.86354061  0.99228330  0.46127931    -0.12500
C2174       C  0.86311654  0.97667296  0.45669494     0.04900
C2175       C  0.85344905  0.01438514  0.47721086     0.27300
C2176       C  0.84351843  0.02529965  0.47030786    -0.13200
C2177       C  0.84345869  0.04073116  0.47545624     0.05400
C2178       C  0.85392679  0.04556189  0.48693234    -0.09100
C2179       C  0.86428755  0.03478043  0.49340942     0.06200
C2180       C  0.86371431  0.01916381  0.48890264    -0.13500
Br2181     Br  0.87829196  0.00620954  0.45214505    -0.05600
Br2182     Br  0.82548529  0.95875802  0.48183014     0.00100
Br2183     Br  0.82912569  0.05531706  0.46669364     0.00500
Br2184     Br  0.87647086  0.00412306  0.49922901    -0.03900
Br2185     Br  0.87755111  0.96925542  0.44145391     0.00600
Br2186     Br  0.82780868  0.99518635  0.49413050    -0.03200
Br2187     Br  0.82999092  0.01904162  0.45378897    -0.04100
Br2188     Br  0.87889355  0.04125791  0.50892851    -0.00100
C2189       C  0.90206287  0.96953920  0.33757733     0.01300
C2190       C  0.88702144  0.96415901  0.33406043     0.04200
C2191       C  0.87735991  0.95844642  0.34586739    -0.11900
C2192       C  0.88236044  0.95863654  0.36132650     0.23500
C2193       C  0.89689145  0.96490670  0.36499372    -0.12500
C2194       C  0.90681702  0.97009897  0.35322660     0.04900
C2195       C  0.87310958  0.95116389  0.37375064     0.27300
C2196       C  0.86185182  0.95957531  0.38196210    -0.13200
C2197       C  0.85497432  0.95319045  0.39528718     0.05400
C2198       C  0.85955416  0.93849785  0.40057874    -0.09100
C2199       C  0.87055424  0.92998487  0.39213728     0.06200
C2200       C  0.87704240  0.93615154  0.37860741    -0.13500
Br2201     Br  0.90347849  0.96555245  0.38629861    -0.05600
Br2202     Br  0.87935841  0.96482091  0.31313885     0.00100
Br2203     Br  0.84053099  0.96518493  0.40720292     0.00500
Br2204     Br  0.89213053  0.92442006  0.36719098    -0.03900
Br2205     Br  0.92744045  0.97644975  0.35885996     0.00600
Br2206     Br  0.85754334  0.94963692  0.34087889    -0.03200
Br2207     Br  0.85679696  0.98026958  0.37557092    -0.04100
Br2208     Br  0.87753347  0.91019949  0.39965875    -0.00100
C2209       C  0.65557861  0.39358057  0.51282974     0.01300
C2210       C  0.65846955  0.37867763  0.51897749     0.04200
C2211       C  0.64631916  0.36984576  0.52521998    -0.11900
C2212       C  0.63107864  0.37539256  0.52467347     0.23500
C2213       C  0.62791283  0.38942840  0.51712713    -0.12500
C2214       C  0.64007074  0.39869158  0.51154034     0.04900
C2215       C  0.61831830  0.36672038  0.53226218     0.27300
C2216       C  0.60977722  0.35568259  0.52391270    -0.13200
C2217       C  0.59659261  0.34881538  0.53053680     0.05400
C2218       C  0.59202925  0.35284144  0.54560893    -0.09100
C2219       C  0.60090631  0.36342885  0.55415686     0.06200
C2220       C  0.61404112  0.37031397  0.54754509    -0.13500
Br2221     Br  0.60673539  0.39591286  0.51457608    -0.05600
Br2222     Br  0.67891610  0.36980224  0.51833059     0.00100
Br2223     Br  0.58406770  0.33491508  0.51853309     0.00500
Br2224     Br  0.62586187  0.38510311  0.55924010    -0.03900
Br2225     Br  0.63508353  0.41872637  0.50314941     0.00600
Br2226     Br  0.65046646  0.35012978  0.53469568    -0.03200
Br2227     Br  0.61584287  0.35058369  0.50314536    -0.04100
Br2228     Br  0.59468467  0.36880188  0.57484719    -0.00100
C2229       C  0.72522176  0.40130748  0.48249582     0.01300
C2230       C  0.73064167  0.38687218  0.48774630     0.04200
C2231       C  0.74106280  0.37825315  0.47870211    -0.11900
C2232       C  0.74620643  0.38402322  0.46439566     0.23500
C2233       C  0.74116122  0.39864361  0.45935166    -0.12500
C2234       C  0.73062969  0.40721878  0.46829647     0.04900
C2235       C  0.75639563  0.37452715  0.45428373     0.27300
C2236       C  0.77256072  0.37590447  0.45520965    -0.13200
C2237       C  0.78209833  0.36835515  0.44436562     0.05400
C2238       C  0.77555560  0.35842920  0.43314748    -0.09100
C2239       C  0.75936303  0.35606485  0.43321122     0.06200
C2240       C  0.74983429  0.36457446  0.44326579    -0.13500
Br2241     Br  0.74865645  0.40680428  0.44003826    -0.05600
Br2242     Br  0.72296770  0.37835192  0.50682256     0.00100
Br2243     Br  0.80389116  0.37284691  0.44428720     0.00500
Br2244     Br  0.72765630  0.36306191  0.44164183    -0.03900
Br2245     Br  0.72392596  0.42724443  0.46117178     0.00600
Br2246     Br  0.74808979  0.35835305  0.48570979    -0.03200
Br2247     Br  0.78150498  0.38842246  0.47128145    -0.04100
Br2248     Br  0.75003353  0.34057241  0.42018793    -0.00100
C2249       C  0.68334373  0.44000386  0.55102724     0.01300
C2250       C  0.67979082  0.42905308  0.56251090     0.04200
C2251       C  0.67282210  0.43382690  0.57638267    -0.11900
C2252       C  0.66955270  0.44956750  0.57884671     0.23500
C2253       C  0.67392983  0.46058569  0.56772070    -0.12500
C2254       C  0.68078767  0.45580860  0.55382777     0.04900
C2255       C  0.65980209  0.45434335  0.59208966     0.27300
C2256       C  0.64388402  0.45664494  0.58974813    -0.13200
C2257       C  0.63444590  0.46143111  0.60201366     0.05400
C2258       C  0.64085694  0.46379520  0.61683904    -0.09100
C2259       C  0.65678288  0.46117924  0.61924471     0.06200
C2260       C  0.66624829  0.45659372  0.60684382    -0.13500
Br2261     Br  0.66937021  0.48211562  0.57104786    -0.05600
Br2262     Br  0.68291331  0.40737013  0.55857478     0.00100
Br2263     Br  0.61249995  0.46353444  0.59849418     0.00500
Br2264     Br  0.68804364  0.45331792  0.60998676    -0.03900
Br2265     Br  0.68625277  0.47088071  0.53835615     0.00600
Br2266     Br  0.66645916  0.41870360  0.59141925    -0.03200
Br2267     Br  0.63494294  0.45279207  0.56967726    -0.04100
Br2268     Br  0.66580642  0.46417066  0.63938855    -0.00100
C2269       C  0.69789303  0.54680386  0.46262109     0.01300
C2270       C  0.70232008  0.53476605  0.45251115     0.04200
C2271       C  0.70333941  0.51949352  0.45799110    -0.11900
C2272       C  0.70021624  0.51618207  0.47358800     0.23500
C2273       C  0.69712092  0.52833030  0.48392144    -0.12500
C2274       C  0.69584392  0.54357613  0.47845670     0.04900
C2275       C  0.69899922  0.49989333  0.47888993     0.27300
C2276       C  0.68433000  0.49306920  0.48037856    -0.13200
C2277       C  0.68287828  0.47790930  0.48601304     0.05400
C2278       C  0.69619903  0.46899775  0.48919453    -0.09100
C2279       C  0.71096458  0.47580231  0.48732474     0.06200
C2280       C  0.71229722  0.49128956  0.48252535    -0.13500
Br2281     Br  0.69459145  0.52396781  0.50559737    -0.05600
Br2282     Br  0.70625943  0.53877122  0.43093798     0.00100
Br2283     Br  0.66250401  0.47013546  0.49062346     0.00500
Br2284     Br  0.73234621  0.50085395  0.48097869    -0.03900
Br2285     Br  0.69188870  0.56008970  0.49285665     0.00600
Br2286     Br  0.70859324  0.50294473  0.44406043    -0.03200
Br2287     Br  0.66615289  0.50458530  0.47452195    -0.04100
Br2288     Br  0.72958562  0.46399645  0.49073658    -0.00100
C2289       C  0.79957480  0.63524007  0.59072278     0.01300
C2290       C  0.79575301  0.63791978  0.60640184     0.04200
C2291       C  0.80084850  0.62760415  0.61792693    -0.11900
C2292       C  0.80971557  0.61458028  0.61396137     0.23500
C2293       C  0.81188174  0.61088593  0.59832431    -0.12500
C2294       C  0.80677783  0.62110171  0.58671338     0.04900
C2295       C  0.81836152  0.60609074  0.62619308     0.27300
C2296       C  0.83361611  0.61056258  0.62966829    -0.13200
C2297       C  0.84135763  0.60402182  0.64235344     0.05400
C2298       C  0.83364808  0.59362194  0.65217365    -0.09100
C2299       C  0.81873397  0.58844032  0.64821405     0.06200
C2300       C  0.81126938  0.59437383  0.63496996    -0.13500
Br2301     Br  0.82232757  0.59197579  0.59300901    -0.05600
Br2302     Br  0.78449460  0.65611237  0.61264926     0.00100
Br2303     Br  0.86263376  0.60927352  0.64635108     0.00500
Br2304     Br  0.79126339  0.58679909  0.62893286    -0.03900
Br2305     Br  0.80949747  0.61534698  0.56536442     0.00600
Br2306     Br  0.79638044  0.63167267  0.63935943    -0.03200
Br2307     Br  0.84364007  0.62630026  0.61751105    -0.04100
Br2308     Br  0.80812693  0.57415838  0.66151693    -0.00100
C2309       C  0.77416701  0.64762715  0.52419657     0.01300
C2310       C  0.76471219  0.63498653  0.52825247     0.04200
C2311       C  0.75481407  0.62827792  0.51723886    -0.11900
C2312       C  0.75461573  0.63379793  0.50193321     0.23500
C2313       C  0.76448937  0.64600937  0.49770128    -0.12500
C2314       C  0.77415875  0.65298611  0.50880963     0.04900
C2315       C  0.74354963  0.62711911  0.49053533     0.27300
C2316       C  0.74825717  0.61532280  0.48038996    -0.13200
C2317       C  0.73745459  0.60822867  0.47045665     0.05400
C2318       C  0.72188554  0.61309348  0.47038371    -0.09100
C2319       C  0.71724752  0.62502534  0.48050895     0.06200
C2320       C  0.72806489  0.63208142  0.49040335    -0.13500
Br2321     Br  0.76417424  0.65359219  0.47679018    -0.05600
Br2322     Br  0.76556471  0.62651840  0.54886941     0.00100
Br2323     Br  0.74371781  0.59076524  0.45819768     0.00500
Br2324     Br  0.72171550  0.64855767  0.50397106    -0.03900
Br2325     Br  0.78641535  0.67066030  0.50316292     0.00600
Br2326     Br  0.74101359  0.61187691  0.52325787    -0.03200
Br2327     Br  0.76951129  0.60870500  0.48041995    -0.04100
Br2328     Br  0.69602134  0.63179444  0.48103693    -0.00100
C2329       C  0.76117757  0.86118938  0.51886527     0.01300
C2330       C  0.76965892  0.87432693  0.52354908     0.04200
C2331       C  0.77978983  0.88175020  0.51320234    -0.11900
C2332       C  0.78163720  0.87616191  0.49805745     0.23500
C2333       C  0.77313738  0.86314102  0.49328395    -0.12500
C2334       C  0.76286159  0.85574805  0.50357535     0.04900
C2335       C  0.79298932  0.88366713  0.48742385     0.27300
C2336       C  0.78831790  0.89557570  0.47735361    -0.13200
C2337       C  0.79922220  0.90309939  0.46782878     0.05400
C2338       C  0.81501357  0.89898218  0.46853117    -0.09100
C2339       C  0.81956131  0.88674235  0.47838182     0.06200
C2340       C  0.80860779  0.87915977  0.48774133    -0.13500
Br2341     Br  0.77618693  0.85507712  0.47278514    -0.05600
Br2342     Br  0.76721147  0.88257416  0.54407553     0.00100
Br2343     Br  0.79247594  0.91953651  0.45441825     0.00500
Br2344     Br  0.81495305  0.86260948  0.50124992    -0.03900
Br2345     Br  0.75195155  0.83754568  0.49691458     0.00600
Br2346     Br  0.79153197  0.89944869  0.51985753    -0.03200
Br2347     Br  0.76696700  0.90186713  0.47706604    -0.04100
Br2348     Br  0.84071873  0.87971456  0.47865919    -0.00100
C2349       C  0.75484664  0.79398159  0.55188232     0.01300
C2350       C  0.75699334  0.78631639  0.56618718     0.04200
C2351       C  0.76253238  0.77102940  0.56655904    -0.11900
C2352       C  0.76482380  0.76283071  0.55274823     0.23500
C2353       C  0.76248013  0.77026419  0.53849543    -0.12500
C2354       C  0.75777052  0.78582064  0.53801925     0.04900
C2355       C  0.76960981  0.74633541  0.55323888     0.27300
C2356       C  0.78525922  0.74236699  0.55151459    -0.13200
C2357       C  0.78983876  0.72679509  0.55190500     0.05400
C2358       C  0.77882310  0.71504481  0.55458964    -0.09100
C2359       C  0.76312529  0.71904625  0.55632770     0.06200
C2360       C  0.75852754  0.73464106  0.55549574    -0.13500
Br2361     Br  0.76580947  0.75901075  0.51957917    -0.05600
Br2362     Br  0.75087917  0.79583700  0.58537504     0.00100
Br2363     Br  0.81142162  0.72183911  0.54925304     0.00500
Br2364     Br  0.73701464  0.74010074  0.55732735    -0.03900
Br2365     Br  0.75573206  0.79578316  0.51817176     0.00600
Br2366     Br  0.76727184  0.76122345  0.58600591    -0.03200
Br2367     Br  0.80047319  0.75842107  0.54900133    -0.04100
Br2368     Br  0.74777908  0.70316871  0.55902421    -0.00100
C2369       C  0.11678564  0.18690795  0.79573076     0.01300
C2370       C  0.10965134  0.18130583  0.78222931     0.04200
C2371       C  0.11679735  0.16950331  0.77359829    -0.11900
C2372       C  0.13045236  0.16247283  0.77907721     0.23500
C2373       C  0.13657928  0.16699209  0.79347284    -0.12500
C2374       C  0.12994762  0.17936197  0.80160074     0.04900
C2375       C  0.13852098  0.15038745  0.76985725     0.27300
C2376       C  0.13298263  0.13513826  0.76974157    -0.13200
C2377       C  0.14165883  0.12332739  0.76269698     0.05400
C2378       C  0.15632463  0.12654124  0.75623153    -0.09100
C2379       C  0.16132825  0.14209842  0.75541889     0.06200
C2380       C  0.15234430  0.15393866  0.76206163    -0.13500
Br2381     Br  0.15433728  0.15649054  0.80189228    -0.05600
Br2382     Br  0.09051459  0.19027300  0.77517567     0.00100
Br2383     Br  0.13307039  0.10281704  0.76170801     0.00500
Br2384     Br  0.15924026  0.17510143  0.76106820    -0.03900
Br2385     Br  0.13885073  0.18605769  0.82089884     0.00600
Br2386     Br  0.10845081  0.16364980  0.75382486    -0.03200
Br2387     Br  0.11378113  0.13035137  0.77994941    -0.04100
Br2388     Br  0.18097944  0.14748874  0.74636700    -0.00100
C2389       C  0.44014012  0.18248245  0.66555267     0.01300
C2390       C  0.43946577  0.18130941  0.68174812     0.04200
C2391       C  0.43190879  0.16872014  0.68867984    -0.11900
C2392       C  0.42468922  0.15750880  0.67937284     0.23500
C2393       C  0.42645821  0.15809513  0.66319552    -0.12500
C2394       C  0.43452137  0.17038608  0.65634138     0.04900
C2395       C  0.41443921  0.14566553  0.68636242     0.27300
C2396       C  0.41959061  0.13036923  0.68801988    -0.13200
C2397       C  0.40927366  0.11875104  0.69279036     0.05400
C2398       C  0.39373819  0.12243630  0.69625157    -0.09100
C2399       C  0.38879094  0.13796290  0.69517257     0.06200
C2400       C  0.39911031  0.14949792  0.69021576    -0.13500
Br2401     Br  0.41666725  0.14280393  0.65033389    -0.05600
Br2402     Br  0.44847329  0.19732569  0.69430182     0.00100
Br2403     Br  0.41663578  0.09781981  0.69452976     0.00500
Br2404     Br  0.39205073  0.17052274  0.68789611    -0.03900
Br2405     Br  0.43685050  0.17134396  0.63423683     0.00600
Br2406     Br  0.43063846  0.16725710  0.71083787    -0.03200
Br2407     Br  0.44079320  0.12542328  0.68331196    -0.04100
Br2408     Br  0.36751547  0.14345907  0.69897244    -0.00100
C2409       C  0.31524954  0.09328519  0.71846799     0.01300
C2410       C  0.30588053  0.10462563  0.71143074     0.04200
C2411       C  0.29000044  0.10546710  0.71491373    -0.11900
C2412       C  0.28333039  0.09485148  0.72529902     0.23500
C2413       C  0.29283066  0.08387934  0.73272613    -0.12500
C2414       C  0.30869734  0.08302573  0.72922786     0.04900
C2415       C  0.26630666  0.09487313  0.72807699     0.27300
C2416       C  0.25956145  0.10593559  0.73791182    -0.13200
C2417       C  0.24353649  0.10571977  0.74072590     0.05400
C2418       C  0.23418514  0.09415377  0.73411317    -0.09100
C2419       C  0.24093890  0.08295262  0.72445991     0.06200
C2420       C  0.25687538  0.08352088  0.72116822    -0.13500
Br2421     Br  0.28407934  0.07008636  0.74782402    -0.05600
Br2422     Br  0.31450734  0.11832209  0.69613136     0.00100
Br2423     Br  0.23457206  0.12062229  0.75462478     0.00500
Br2424     Br  0.26586091  0.06867944  0.70722942    -0.03900
Br2425     Br  0.32159427  0.06795621  0.73936515     0.00600
Br2426     Br  0.27731728  0.12106763  0.70530640    -0.03200
Br2427     Br  0.27240820  0.12099693  0.74806415    -0.04100
Br2428     Br  0.22834164  0.06678538  0.71579636    -0.00100
C2429       C  0.38132456  0.05380581  0.72721349     0.01300
C2430       C  0.37712738  0.03814912  0.72525876     0.04200
C2431       C  0.38458851  0.02649243  0.73388168    -0.11900
C2432       C  0.39608647  0.03032772  0.74474817     0.23500
C2433       C  0.40046241  0.04587516  0.74654909    -0.12500
C2434       C  0.39321002  0.05754496  0.73779471     0.04900
C2435       C  0.40260503  0.01822017  0.75519722     0.27300
C2436       C  0.39407494  0.01342358  0.76817570    -0.13200
C2437       C  0.40013830  0.00227305  0.77835670     0.05400
C2438       C  0.41501205  0.99604357  0.77591738    -0.09100
C2439       C  0.42351207  0.00073780  0.76281098     0.06200
C2440       C  0.41730330  0.01174399  0.75247525    -0.13500
Br2441     Br  0.41629788  0.05119404  0.76128818    -0.05600
Br2442     Br  0.36039839  0.03254318  0.71163785     0.00100
Br2443     Br  0.38769544  0.99519814  0.79537979     0.00500
Br2444     Br  0.42913654  0.01839912  0.73485104    -0.03900
Br2445     Br  0.40013062  0.07859934  0.74005832     0.00600
Br2446     Br  0.37887528  0.00516247  0.73110629    -0.03200
Br2447     Br  0.37420699  0.02264405  0.77228477    -0.04100
Br2448     Br  0.44411493  0.99294971  0.75950312    -0.00100
C2449       C  0.47843617  0.98935123  0.81417733     0.01300
C2450       C  0.48892357  0.98122967  0.82358692     0.04200
C2451       C  0.50466522  0.98505058  0.82334685    -0.11900
C2452       C  0.50976967  0.99778375  0.81465896     0.23500
C2453       C  0.49908319  0.00656011  0.80604200    -0.12500
C2454       C  0.48346403  0.00212515  0.80553518     0.04900
C2455       C  0.52637951  0.00188249  0.81457582     0.27300
C2456       C  0.53261139  0.01087499  0.82659161    -0.13200
C2457       C  0.54827065  0.01518156  0.82624454     0.05400
C2458       C  0.55776255  0.01033416  0.81393930    -0.09100
C2459       C  0.55168787  0.00066638  0.80238907     0.06200
C2460       C  0.53597762  0.99663259  0.80257015    -0.13500
Br2461     Br  0.50594489  0.02444764  0.79475626    -0.05600
Br2462     Br  0.48178050  0.96475984  0.83672702     0.00100
Br2463     Br  0.55640387  0.02842744  0.84218448     0.00500
Br2464     Br  0.52749920  0.98412958  0.78623837    -0.03900
Br2465     Br  0.46884303  0.01360177  0.79326927     0.00600
Br2466     Br  0.51937460  0.97235222  0.83423093    -0.03200
Br2467     Br  0.51949992  0.01759522  0.84327668    -0.04100
Br2468     Br  0.56509227  0.99238672  0.78671238    -0.00100
C2469       C  0.58682215  0.07566296  0.81456788     0.01300
C2470       C  0.59655378  0.08568519  0.82288785     0.04200
C2471       C  0.59043681  0.09913537  0.82968517    -0.11900
C2472       C  0.57460704  0.10261316  0.82806458     0.23500
C2473       C  0.56541346  0.09361518  0.81813617    -0.12500
C2474       C  0.57144619  0.08001409  0.81160985     0.04900
C2475       C  0.56728030  0.11425739  0.83837826     0.27300
C2476       C  0.56143287  0.10953549  0.85279445    -0.13200
C2477       C  0.55591975  0.12051111  0.86344154     0.05400
C2478       C  0.55556936  0.13636300  0.85946499    -0.09100
C2479       C  0.56037859  0.14087297  0.84449497     0.06200
C2480       C  0.56647080  0.12989381  0.83413977    -0.13500
Br2481     Br  0.54441392  0.09967768  0.81406909    -0.05600
Br2482     Br  0.61798019  0.08040199  0.82584235     0.00100
Br2483     Br  0.55022306  0.11358530  0.88385486     0.00500
Br2484     Br  0.57393776  0.13619276  0.81416300    -0.03900
Br2485     Br  0.55851053  0.06682475  0.79925717     0.00600
Br2486     Br  0.60348636  0.11243854  0.84184540    -0.03200
Br2487     Br  0.56127707  0.08786402  0.85801952    -0.04100
Br2488     Br  0.55824980  0.16200603  0.83778309    -0.00100
C2489       C  0.62198025  0.00373598  0.77577920     0.01300
C2490       C  0.63195903  0.01061485  0.76483986     0.04200
C2491       C  0.63976043  0.00142833  0.75388477    -0.11900
C2492       C  0.63771571  0.98531153  0.75370019     0.23500
C2493       C  0.62784551  0.97839652  0.76459946    -0.12500
C2494       C  0.61987776  0.98753578  0.77546350     0.04900
C2495       C  0.64653737  0.97556005  0.74254311     0.27300
C2496       C  0.64018080  0.97167960  0.72806407    -0.13200
C2497       C  0.64844098  0.96213672  0.71775046     0.05400
C2498       C  0.66321141  0.95651721  0.72177336    -0.09100
C2499       C  0.66973503  0.96083418  0.73610019     0.06200
C2500       C  0.66135789  0.97014634  0.74648464    -0.13500
Br2501     Br  0.62574608  0.95624046  0.76495366    -0.05600
Br2502     Br  0.63591164  0.03250989  0.76536297     0.00100
Br2503     Br  0.63908988  0.95606933  0.69850201     0.00500
Br2504     Br  0.67001057  0.97538974  0.76633062    -0.03900
Br2505     Br  0.60563646  0.97767717  0.78945605     0.00600
Br2506     Br  0.65389527  0.01077194  0.73946957    -0.03200
Br2507     Br  0.61998858  0.97925037  0.72254131    -0.04100
Br2508     Br  0.69049554  0.95463318  0.74129429    -0.00100
C2509       C  0.70191683  0.91357270  0.65089493     0.01300
C2510       C  0.69103986  0.91166974  0.63888837     0.04200
C2511       C  0.69520171  0.90374903  0.62528466    -0.11900
C2512       C  0.71032510  0.89803097  0.62345639     0.23500
C2513       C  0.72137963  0.90061117  0.63507040    -0.12500
C2514       C  0.71717398  0.90817272  0.64879493     0.04900
C2515       C  0.71438789  0.88810105  0.61005603     0.27300
C2516       C  0.71356506  0.87194218  0.61155342    -0.13200
C2517       C  0.71863803  0.86235489  0.59948473     0.05400
C2518       C  0.72427204  0.86886416  0.58565577    -0.09100
C2519       C  0.72445397  0.88505282  0.58390442     0.06200
C2520       C  0.71983311  0.89464453  0.59620864    -0.13500
Br2521     Br  0.74212668  0.89289059  0.63244393    -0.05600
Br2522     Br  0.66999823  0.91842104  0.64164519     0.00100
Br2523     Br  0.71706081  0.84024522  0.60169204     0.00500
Br2524     Br  0.72132758  0.91675249  0.59435688    -0.03900
Br2525     Br  0.73236255  0.91059160  0.66488830     0.00600
Br2526     Br  0.67993201  0.89962200  0.60962192    -0.03200
Br2527     Br  0.70545096  0.86298068  0.63025802    -0.04100
Br2528     Br  0.73136897  0.89415173  0.56484205    -0.00100
C2529       C  0.80899147  0.92783057  0.73686013     0.01300
C2530       C  0.79950145  0.94105891  0.73902406     0.04200
C2531       C  0.78392760  0.94088592  0.73439968    -0.11900
C2532       C  0.77759587  0.92768971  0.72746789     0.23500
C2533       C  0.78686403  0.91459082  0.72507488    -0.12500
C2534       C  0.80252179  0.91463824  0.72957195     0.04900
C2535       C  0.76124647  0.92784302  0.72226371     0.27300
C2536       C  0.74965530  0.92113650  0.73144758    -0.13200
C2537       C  0.73416505  0.92143780  0.72654457     0.05400
C2538       C  0.73015580  0.92840688  0.71233443    -0.09100
C2539       C  0.74176747  0.93581366  0.70350894     0.06200
C2540       C  0.75726623  0.93526532  0.70836733    -0.13500
Br2541     Br  0.77781076  0.89642082  0.71586982    -0.05600
Br2542     Br  0.80743472  0.95996553  0.74783479     0.00100
Br2543     Br  0.71838836  0.91326097  0.73999833     0.00500
Br2544     Br  0.77325496  0.94455557  0.69591180    -0.03900
Br2545     Br  0.81451188  0.89620426  0.72591501     0.00600
Br2546     Br  0.77098733  0.95877472  0.73765466    -0.03200
Br2547     Br  0.75506067  0.91159542  0.75083674    -0.04100
Br2548     Br  0.73692086  0.94669176  0.68463736    -0.00100
C2549       C  0.16624275  0.05800955  0.72545087     0.01300
C2550       C  0.15395433  0.06243019  0.71564741     0.04200
C2551       C  0.14706151  0.05161214  0.70564189    -0.11900
C2552       C  0.15180196  0.03606450  0.70584507     0.23500
C2553       C  0.16331663  0.03137513  0.71638124    -0.12500
C2554       C  0.17068843  0.04231544  0.72598409     0.04900
C2555       C  0.14483353  0.02476132  0.69479341     0.27300
C2556       C  0.13146720  0.01641071  0.69881723    -0.13200
C2557       C  0.12465268  0.00609801  0.68817480     0.05400
C2558       C  0.13115072  0.00405545  0.67335121    -0.09100
C2559       C  0.14456255  0.01243790  0.66937308     0.06200
C2560       C  0.15130095  0.02277297  0.68000505    -0.13500
Br2561     Br  0.16898754  0.00989557  0.71752619    -0.05600
Br2562     Br  0.14572022  0.08310637  0.71666909     0.00100
Br2563     Br  0.10568295  0.99577982  0.69355090     0.00500
Br2564     Br  0.16912328  0.03473670  0.67414507    -0.03900
Br2565     Br  0.18735570  0.03578140  0.73924720     0.00600
Br2566     Br  0.13116803  0.05810626  0.69145618    -0.03200
Br2567     Br  0.12211979  0.01976015  0.71872012    -0.04100
Br2568     Br  0.15397515  0.00959723  0.64939889    -0.00100
C2569       C  0.90634787  0.04256215  0.61168080     0.01300
C2570       C  0.91189229  0.04722202  0.59708072     0.04200
C2571       C  0.90155898  0.05278308  0.58579795    -0.11900
C2572       C  0.88572837  0.05438033  0.58922383     0.23500
C2573       C  0.88019396  0.04986378  0.60381567    -0.12500
C2574       C  0.89041615  0.04371626  0.61490189     0.04900
C2575       C  0.87509248  0.06094808  0.57739153     0.27300
C2576       C  0.87419333  0.07705766  0.57523535    -0.13200
C2577       C  0.86645264  0.08315432  0.56226295     0.05400
C2578       C  0.85952819  0.07314941  0.55147983    -0.09100
C2579       C  0.85913375  0.05718847  0.55448632     0.06200
C2580       C  0.86699048  0.05107098  0.56734165    -0.13500
Br2581     Br  0.85868253  0.05260907  0.60873920    -0.05600
Br2582     Br  0.93377914  0.04750226  0.59293503     0.00100
Br2583     Br  0.86643853  0.10508687  0.55857699     0.00500
Br2584     Br  0.86756407  0.02908819  0.57062581    -0.03900
Br2585     Br  0.88252277  0.03660440  0.63445270     0.00600
Br2586     Br  0.90909296  0.05862146  0.56565558    -0.03200
Br2587     Br  0.88446588  0.09064071  0.58955268    -0.04100
Br2588     Br  0.84805766  0.04373516  0.54066643    -0.00100
C2589       C  0.91480340  0.00986705  0.67942429     0.01300
C2590       C  0.90090953  0.01553224  0.68583278     0.04200
C2591       C  0.89271394  0.00668146  0.69679728    -0.11900
C2592       C  0.89832875  0.99213628  0.70147776     0.23500
C2593       C  0.91244858  0.98672808  0.69548993    -0.12500
C2594       C  0.92062722  0.99550425  0.68450045     0.04900
C2595       C  0.88915683  0.98215715  0.71215836     0.27300
C2596       C  0.89248131  0.98175237  0.72808713    -0.13200
C2597       C  0.88457553  0.97140667  0.73792498     0.05400
C2598       C  0.87342797  0.96115459  0.73182216    -0.09100
C2599       C  0.86966244  0.96212366  0.71593840     0.06200
C2600       C  0.87754598  0.97248520  0.70618878    -0.13500
Br2601     Br  0.92057942  0.96720546  0.70245506    -0.05600
Br2602     Br  0.89258079  0.03504318  0.67905579     0.00100
Br2603     Br  0.88973044  0.97087980  0.75956324     0.00500
Br2604     Br  0.87279984  0.97313012  0.68442573    -0.03900
Br2605     Br  0.94021243  0.98805261  0.67694593     0.00600
Br2606     Br  0.87367888  0.01435862  0.70538589    -0.03200
Br2607     Br  0.90840901  0.99500410  0.73620491    -0.04100
Br2608     Br  0.85321086  0.94970457  0.70742649    -0.00100
C2609       C  0.98387517  0.01802047  0.64707912     0.01300
C2610       C  0.98932727  0.00550604  0.63809571     0.04200
C2611       C  0.00529454  0.00239260  0.63711570    -0.11900
C2612       C  0.01596101  0.01140453  0.64541033     0.23500
C2613       C  0.01064663  0.02358935  0.65468208    -0.12500
C2614       C  0.99473655  0.02688922  0.65562247     0.04900
C2615       C  0.03267156  0.00728564  0.64541254     0.27300
C2616       C  0.03833085  0.99683112  0.65644934    -0.13200
C2617       C  0.05401237  0.99250444  0.65646909     0.05400
C2618       C  0.06431923  0.99863615  0.64522002    -0.09100
C2619       C  0.05865636  0.00990546  0.63473834     0.06200
C2620       C  0.04288199  0.01398467  0.63472830    -0.13500
Br2621     Br  0.02540538  0.03575479  0.66614241    -0.05600
Br2622     Br  0.97504859  0.99163246  0.62813932     0.00100
Br2623     Br  0.06060344  0.97789222  0.67205480     0.00500
Br2624     Br  0.03508660  0.02871482  0.61995329    -0.03900
Br2625     Br  0.98837905  0.04382807  0.66866588     0.00600
Br2626     Br  0.01273975  0.98564222  0.62448910    -0.03200
Br2627     Br  0.02426432  0.98826250  0.67148826    -0.04100
Br2628     Br  0.07234797  0.02062969  0.62077835    -0.00100
C2629       C  0.95593050  0.07823624  0.64007427     0.01300
C2630       C  0.96994328  0.07967487  0.63187336     0.04200
C2631       C  0.97414472  0.09389652  0.62541969    -0.11900
C2632       C  0.96462382  0.10686945  0.62746947     0.23500
C2633       C  0.95137188  0.10583990  0.63681726    -0.12500
C2634       C  0.94698193  0.09150705  0.64312942     0.04900
C2635       C  0.96741098  0.12067072  0.61779791     0.27300
C2636       C  0.97768461  0.13230227  0.62263422    -0.13200
C2637       C  0.98196874  0.14410338  0.61231113     0.05400
C2638       C  0.97611373  0.14412637  0.59715793    -0.09100
C2639       C  0.96539125  0.13283222  0.59253968     0.06200
C2640       C  0.96104282  0.12112696  0.60284166    -0.13500
Br2641     Br  0.93859016  0.12381261  0.63973248    -0.05600
Br2642     Br  0.98331166  0.06205931  0.62897918     0.00100
Br2643     Br  0.99621000  0.15995425  0.61863712     0.00500
Br2644     Br  0.94698244  0.10513848  0.59623660    -0.03900
Br2645     Br  0.92790913  0.08990895  0.65447914     0.00600
Br2646     Br  0.99216573  0.09531303  0.61238705    -0.03200
Br2647     Br  0.98634415  0.13158720  0.64310759    -0.04100
Br2648     Br  0.95684802  0.13318847  0.57197394    -0.00100
C2649       C  0.15323449  0.39489111  0.00708513     0.01300
C2650       C  0.15496330  0.37887684  0.00484184     0.04200
C2651       C  0.14404767  0.36852150  0.01101497    -0.11900
C2652       C  0.13125917  0.37415110  0.01931744     0.23500
C2653       C  0.12920934  0.39018555  0.02105051    -0.12500
C2654       C  0.14009396  0.40053723  0.01490040     0.04900
C2655       C  0.11936205  0.36345299  0.02554176     0.27300
C2656       C  0.10578074  0.36090522  0.01701929    -0.13200
C2657       C  0.09319620  0.35330358  0.02385340     0.05400
C2658       C  0.09427335  0.34768672  0.03913267    -0.09100
C2659       C  0.10836432  0.34906169  0.04719974     0.06200
C2660       C  0.12079588  0.35719847  0.04051345    -0.13500
Br2661     Br  0.11155337  0.39792093  0.03223028    -0.05600
Br2662     Br  0.17193147  0.37124315  0.99264632     0.00100
Br2663     Br  0.07429220  0.35105834  0.01227736     0.00500
Br2664     Br  0.13938683  0.36079749  0.05221548    -0.03900
Br2665     Br  0.13725206  0.42240795  0.01803018     0.00600
Br2666     Br  0.14661256  0.34662912  0.00824391    -0.03200
Br2667     Br  0.10419245  0.36869515  0.99620426    -0.04100
Br2668     Br  0.11022980  0.34102197  0.06787141    -0.00100
C2669       C  0.19614808  0.55035397  0.96310354     0.01300
C2670       C  0.18564387  0.54588974  0.97482373     0.04200
C2671       C  0.18433408  0.53026954  0.97908685    -0.11900
C2672       C  0.19351929  0.51903108  0.97182224     0.23500
C2673       C  0.20381371  0.52331126  0.96008508    -0.12500
C2674       C  0.20545510  0.53888311  0.95593809     0.04900
C2675       C  0.19263591  0.50265377  0.97665792     0.27300
C2676       C  0.20443413  0.49630593  0.98581889    -0.13200
C2677       C  0.20419799  0.48054687  0.98964561     0.05400
C2678       C  0.19123119  0.47130198  0.98569938    -0.09100
C2679       C  0.17914059  0.47800627  0.97685606     0.06200
C2680       C  0.18036999  0.49333427  0.97163781    -0.13500
Br2681     Br  0.21503045  0.50749570  0.94905423    -0.05600
Br2682     Br  0.17324294  0.56094028  0.98563694     0.00100
Br2683     Br  0.22236598  0.47194553  0.99941177     0.00500
Br2684     Br  0.16552377  0.50161078  0.95717646    -0.03900
Br2685     Br  0.22013073  0.54370811  0.93978507     0.00600
Br2686     Br  0.16954349  0.52407647  0.99455898    -0.03200
Br2687     Br  0.22105088  0.50934202  0.99302322    -0.04100
Br2688     Br  0.16020461  0.46708408  0.97256068    -0.00100
C2689       C  0.13812969  0.53952719  0.84092212     0.01300
C2690       C  0.15393210  0.53574715  0.84012554     0.04200
C2691       C  0.16391667  0.54004479  0.85221631    -0.11900
C2692       C  0.15813361  0.54840714  0.86488298     0.23500
C2693       C  0.14226375  0.55179529  0.86584218    -0.12500
C2694       C  0.13228545  0.54739537  0.85387708     0.04900
C2695       C  0.16866007  0.55452654  0.87687738     0.27300
C2696       C  0.17107879  0.54616435  0.89056381    -0.13200
C2697       C  0.17856117  0.55319148  0.90312995     0.05400
C2698       C  0.18402865  0.56851916  0.90190090    -0.09100
C2699       C  0.18227351  0.57657725  0.88786653     0.06200
C2700       C  0.17454050  0.56959780  0.87540644    -0.13500
Br2701     Br  0.13429863  0.56297598  0.88337588    -0.05600
Br2702     Br  0.16183758  0.52474232  0.82249389     0.00100
Br2703     Br  0.18051672  0.54194508  0.92225272     0.00500
Br2704     Br  0.17073973  0.58109019  0.85669973    -0.03900
Br2705     Br  0.11081566  0.55336643  0.85467713     0.00600
Br2706     Br  0.18549395  0.53468045  0.85147929    -0.03200
Br2707     Br  0.16315949  0.52542674  0.89232312    -0.04100
Br2708     Br  0.18860917  0.59783957  0.88627542    -0.00100
C2709       C  0.34538684  0.42111664  0.80225348     0.01300
C2710       C  0.33183092  0.42823192  0.80775031     0.04200
C2711       C  0.32386786  0.42175714  0.82039949    -0.11900
C2712       C  0.32967657  0.40838939  0.82767539     0.23500
C2713       C  0.34403885  0.40231924  0.82312566    -0.12500
C2714       C  0.35178303  0.40856350  0.81036984     0.04900
C2715       C  0.32050060  0.39981963  0.83935194     0.27300
C2716       C  0.32265014  0.40275861  0.85514048    -0.13200
C2717       C  0.31648935  0.39263490  0.86626346     0.05400
C2718       C  0.30857425  0.37907608  0.86162814    -0.09100
C2719       C  0.30562088  0.37672195  0.84568839     0.06200
C2720       C  0.31149343  0.38714312  0.83466524    -0.13500
Br2721     Br  0.35268301  0.38483629  0.83391678    -0.05600
Br2722     Br  0.32353901  0.44597436  0.79715134     0.00100
Br2723     Br  0.31901073  0.39769658  0.88782123     0.00500
Br2724     Br  0.30832032  0.38345043  0.81289719    -0.03900
Br2725     Br  0.37089745  0.39942338  0.80352247     0.00600
Br2726     Br  0.30466486  0.43060987  0.82724451    -0.03200
Br2727     Br  0.33511271  0.42010766  0.86137180    -0.04100
Br2728     Br  0.29481893  0.35864073  0.83837938    -0.00100
C2729       C  0.22401282  0.40608337  0.97768575     0.01300
C2730       C  0.23003018  0.41332112  0.96437013     0.04200
C2731       C  0.24060851  0.40545592  0.95480156    -0.11900
C2732       C  0.24543095  0.39037469  0.95854845     0.23500
C2733       C  0.23986799  0.38336789  0.97214898    -0.12500
C2734       C  0.22916353  0.39115397  0.98164104     0.04900
C2735       C  0.25559853  0.38157215  0.94772364     0.27300
C2736       C  0.24894966  0.37195218  0.93645799    -0.13200
C2737       C  0.25836879  0.36340336  0.92631782     0.05400
C2738       C  0.27465001  0.36511398  0.92663825    -0.09100
C2739       C  0.28128295  0.37498881  0.93786295     0.06200
C2740       C  0.27179017  0.38293788  0.94849358    -0.13500
Br2741     Br  0.24657457  0.36284316  0.97746906    -0.05600
Br2742     Br  0.22409650  0.43420075  0.95940774     0.00100
Br2743     Br  0.24866010  0.34871589  0.91265082     0.00500
Br2744     Br  0.28085916  0.39610739  0.96395992    -0.03900
Br2745     Br  0.22066924  0.38087756  0.99945799     0.00600
Br2746     Br  0.24819743  0.41508660  0.93622418    -0.03200
Br2747     Br  0.22676096  0.37095820  0.93460961    -0.04100
Br2748     Br  0.30325581  0.37860061  0.93825414    -0.00100
C2749       C  0.34482346  0.32571445  0.88610795     0.01300
C2750       C  0.34748116  0.30984790  0.88843453     0.04200
C2751       C  0.36016404  0.30257059  0.88130683    -0.11900
C2752       C  0.37081363  0.31135530  0.87270326     0.23500
C2753       C  0.36892525  0.32749419  0.87166968    -0.12500
C2754       C  0.35564548  0.33454264  0.87781391     0.04900
C2755       C  0.38272669  0.30360793  0.86303779     0.27300
C2756       C  0.39665322  0.29819261  0.86951506    -0.13200
C2757       C  0.40827732  0.29205744  0.85991166     0.05400
C2758       C  0.40607653  0.29144324  0.84377756    -0.09100
C2759       C  0.39195317  0.29652235  0.83738444     0.06200
C2760       C  0.38025577  0.30230594  0.84701095    -0.13500
Br2761     Br  0.38402237  0.33975143  0.86082131    -0.05600
Br2762     Br  0.33312737  0.29794898  0.90054293     0.00100
Br2763     Br  0.42714721  0.28435510  0.86889597     0.00500
Br2764     Br  0.36083725  0.30885543  0.83818042    -0.03900
Br2765     Br  0.35151286  0.35601262  0.87363480     0.00600
Br2766     Br  0.36210754  0.28042381  0.88201308    -0.03200
Br2767     Br  0.39990697  0.29950687  0.89148544    -0.04100
Br2768     Br  0.38901887  0.29715455  0.81528281    -0.00100
C2769       C  0.23976151  0.14203070  0.85590150     0.01300
C2770       C  0.24127237  0.14615769  0.84015003     0.04200
C2771       C  0.23493824  0.13665550  0.82855213    -0.11900
C2772       C  0.22723195  0.12290303  0.83249417     0.23500
C2773       C  0.22660994  0.11824397  0.84803562    -0.12500
C2774       C  0.23284326  0.12772662  0.85969824     0.04900
C2775       C  0.21893935  0.11399705  0.82032761     0.27300
C2776       C  0.20351816  0.11777559  0.81669393    -0.13200
C2777       C  0.19636876  0.11121674  0.80365996     0.05400
C2778       C  0.20438715  0.10042960  0.79452737    -0.09100
C2779       C  0.21925235  0.09559198  0.79896373     0.06200
C2780       C  0.22667332  0.10262390  0.81162805    -0.13500
Br2781     Br  0.21675966  0.09901676  0.85330074    -0.05600
Br2782     Br  0.25097665  0.16529451  0.83416198     0.00100
Br2783     Br  0.17572468  0.11734492  0.79793142     0.00500
Br2784     Br  0.24779536  0.09755198  0.81636334    -0.03900
Br2785     Br  0.23208440  0.12080379  0.88087038     0.00600
Br2786     Br  0.23611742  0.14278107  0.80715158    -0.03200
Br2787     Br  0.19250012  0.13257455  0.82913980    -0.04100
Br2788     Br  0.22975413  0.08007552  0.78699214    -0.00100
C2789       C  0.26723448  0.21876413  0.88562649     0.01300
C2790       C  0.25914068  0.22897415  0.87583851     0.04200
C2791       C  0.26290042  0.24477631  0.87560953    -0.11900
C2792       C  0.27480157  0.25047163  0.88511861     0.23500
C2793       C  0.28324427  0.24018946  0.89451056    -0.12500
C2794       C  0.27939702  0.22438703  0.89484487     0.04900
C2795       C  0.27784821  0.26736600  0.88585937     0.27300
C2796       C  0.28874167  0.27422891  0.87594213    -0.13200
C2797       C  0.29149841  0.29022592  0.87666290     0.05400
C2798       C  0.28363627  0.29940399  0.88757415    -0.09100
C2799       C  0.27272390  0.29254391  0.89746893     0.06200
C2800       C  0.26980310  0.27658127  0.89658036    -0.13500
Br2801     Br  0.29984237  0.24792312  0.90715583    -0.05600
Br2802     Br  0.24213235  0.22153254  0.86351756     0.00100
Br2803     Br  0.30675587  0.29937375  0.86326468     0.00500
Br2804     Br  0.25510794  0.26715529  0.91036628    -0.03900
Br2805     Br  0.29077621  0.21039374  0.90788227     0.00600
Br2806     Br  0.25138352  0.25879665  0.86269168    -0.03200
Br2807     Br  0.30041876  0.26155334  0.86189738    -0.04100
Br2808     Br  0.26155169  0.30510157  0.91201961    -0.00100
C2809       C  0.14233084  0.22904654  0.84299728     0.01300
C2810       C  0.13979087  0.22678058  0.85894815     0.04200
C2811       C  0.15198062  0.22186925  0.86858323    -0.11900
C2812       C  0.16677232  0.21935718  0.86235423     0.23500
C2813       C  0.16965940  0.22310115  0.84680806    -0.12500
C2814       C  0.15747768  0.22768232  0.83707173     0.04900
C2815       C  0.17883396  0.21094241  0.87126969     0.27300
C2816       C  0.18948125  0.21890983  0.88064248    -0.13200
C2817       C  0.20235796  0.21107309  0.88686744     0.05400
C2818       C  0.20483591  0.19539053  0.88332392    -0.09100
C2819       C  0.19385707  0.18732588  0.87446377     0.06200
C2820       C  0.18073927  0.19498940  0.86874797    -0.13500
Br2821     Br  0.19034264  0.22117896  0.83874233    -0.05600
Br2822     Br  0.11963221  0.23045850  0.86765272     0.00100
Br2823     Br  0.21728972  0.22209370  0.89912934     0.00500
Br2824     Br  0.16579571  0.18383667  0.85657849    -0.03900
Br2825     Br  0.16154015  0.23033698  0.81531728     0.00600
Br2826     Br  0.14840964  0.21814298  0.89020652    -0.03200
Br2827     Br  0.18699034  0.24074787  0.88391916    -0.04100
Br2828     Br  0.19728904  0.16591776  0.86937243    -0.00100
C2829       C  0.39121480  0.12163966  0.01007099     0.01300
C2830       C  0.38907675  0.13733273  0.01400562     0.04200
C2831       C  0.40118718  0.14587094  0.02080283    -0.11900
C2832       C  0.41582362  0.13908829  0.02292927     0.23500
C2833       C  0.41841301  0.12395037  0.01759100    -0.12500
C2834       C  0.40609308  0.11506026  0.01173702     0.04900
C2835       C  0.42827546  0.14722071  0.03170602     0.27300
C2836       C  0.43764754  0.15842433  0.02450534    -0.13200
C2837       C  0.45066027  0.16444609  0.03227061     0.05400
C2838       C  0.45459286  0.15900701  0.04710414    -0.09100
C2839       C  0.44492856  0.14823561  0.05450802     0.06200
C2840       C  0.43166015  0.14261031  0.04697557    -0.13500
Br2841     Br  0.43894557  0.11531625  0.01872164    -0.05600
Br2842     Br  0.36963816  0.14733696  0.00979837     0.00100
Br2843     Br  0.46396644  0.17903531  0.02201883     0.00500
Br2844     Br  0.41846005  0.12796613  0.05731688    -0.03900
Br2845     Br  0.40952644  0.09342610  0.00775486     0.00600
Br2846     Br  0.39758130  0.16668200  0.02775219    -0.03200
Br2847     Br  0.43331298  0.16465250  0.00359110    -0.04100
Br2848     Br  0.45031310  0.14065554  0.07477879    -0.00100
C2849       C  0.27032599  0.15120918  0.92445000     0.01300
C2850       C  0.28104155  0.13941010  0.92084753     0.04200
C2851       C  0.28988456  0.13238415  0.93261762    -0.11900
C2852       C  0.28822602  0.13705673  0.94810756     0.23500
C2853       C  0.27715253  0.14837336  0.95182529    -0.12500
C2854       C  0.26824499  0.15542319  0.94009001     0.04900
C2855       C  0.29876965  0.13056824  0.96020913     0.27300
C2856       C  0.29439194  0.11764075  0.96906551    -0.13200
C2857       C  0.30511547  0.11048697  0.97912195     0.05400
C2858       C  0.32045374  0.11599301  0.98010562    -0.09100
C2859       C  0.32449630  0.12947854  0.97187639     0.06200
C2860       C  0.31365440  0.13682313  0.96216491    -0.13500
Br2861     Br  0.27455336  0.15449569  0.97303873    -0.05600
Br2862     Br  0.28346109  0.13242664  0.89983207     0.00100
Br2863     Br  0.29892868  0.09262763  0.99082851     0.00500
Br2864     Br  0.31913206  0.15551500  0.95139245    -0.03900
Br2865     Br  0.25406303  0.17170217  0.94550915     0.00600
Br2866     Br  0.30449242  0.11633235  0.92759134    -0.03200
Br2867     Br  0.27377403  0.10954100  0.96699450    -0.04100
Br2868     Br  0.34484011  0.13819946  0.97415017    -0.00100
C2869       C  0.36513508  0.07522447  0.04718558     0.01300
C2870       C  0.37387863  0.06145814  0.04855140     0.04200
C2871       C  0.37915586  0.05654262  0.06305965    -0.11900
C2872       C  0.37713867  0.06597280  0.07608784     0.23500
C2873       C  0.36844483  0.07965070  0.07489069    -0.12500
C2874       C  0.36208441  0.08407815  0.06055334     0.04900
C2875       C  0.38617485  0.06237530  0.09020308     0.27300
C2876       C  0.37943082  0.05449387  0.10272071    -0.13200
C2877       C  0.38881007  0.04894112  0.11482816     0.05400
C2878       C  0.40496542  0.05072840  0.11408029    -0.09100
C2879       C  0.41157295  0.05926572  0.10191642     0.06200
C2880       C  0.40216762  0.06531351  0.09018077    -0.13500
Br2881     Br  0.36624496  0.09281044  0.09267968    -0.05600
Br2882     Br  0.37981248  0.04952859  0.03066696     0.00100
Br2883     Br  0.37962146  0.03845570  0.13211993     0.00500
Br2884     Br  0.41120105  0.07736402  0.07374226    -0.03900
Br2885     Br  0.35077113  0.10320882  0.05911513     0.00600
Br2886     Br  0.38997211  0.03712279  0.06510310    -0.03200
Br2887     Br  0.35748354  0.05088180  0.10293416    -0.04100
Br2888     Br  0.43353905  0.06296225  0.10137789    -0.00100
C2889       C  0.35143842  0.96582936  0.96711932     0.01300
C2890       C  0.36568104  0.97349996  0.96945221     0.04200
C2891       C  0.36592908  0.98933050  0.97329089    -0.11900
C2892       C  0.35206405  0.99781444  0.97408108     0.23500
C2893       C  0.33791160  0.99026941  0.97143656    -0.12500
C2894       C  0.33754993  0.97431302  0.96839527     0.04900
C2895       C  0.35220878  0.01446106  0.97854925     0.27300
C2896       C  0.34890464  0.01868004  0.99386679    -0.13200
C2897       C  0.34812640  0.03436825  0.99809828     0.05400
C2898       C  0.35179574  0.04607962  0.98724231    -0.09100
C2899       C  0.35531741  0.04174809  0.97190173     0.06200
C2900       C  0.35512009  0.02604975  0.96751580    -0.13500
Br2901     Br  0.31894061  0.00190991  0.97200094    -0.05600
Br2902     Br  0.38499966  0.96276832  0.96652353     0.00100
Br2903     Br  0.34207530  0.03936525  0.01894192     0.00500
Br2904     Br  0.35841147  0.02033471  0.94627323    -0.03900
Br2905     Br  0.31782893  0.96402060  0.96699697     0.00600
Br2906     Br  0.38525475  0.99945828  0.97771481    -0.03200
Br2907     Br  0.34570087  0.00272321  0.00911545    -0.04100
Br2908     Br  0.35956966  0.05728503  0.95654113    -0.00100
C2909       C  0.36110658  0.93239405  0.90734183     0.01300
C2910       C  0.36164211  0.94814817  0.90346212     0.04200
C2911       C  0.36927586  0.95291147  0.89001686    -0.11900
C2912       C  0.37621230  0.94190166  0.88032679     0.23500
C2913       C  0.37498072  0.92606227  0.88374340    -0.12500
C2914       C  0.36765890  0.92131302  0.89742550     0.04900
C2915       C  0.38617617  0.94719205  0.86755199     0.27300
C2916       C  0.37978744  0.95052467  0.85301605    -0.13200
C2917       C  0.38924152  0.95619863  0.84113268     0.05400
C2918       C  0.40505413  0.95901971  0.84392848    -0.09100
C2919       C  0.41139971  0.95577095  0.85862098     0.06200
C2920       C  0.40199218  0.94965885  0.87031458    -0.13500
Br2921     Br  0.38427222  0.91106521  0.87018022    -0.05600
Br2922     Br  0.35280387  0.96328462  0.91717437     0.00100
Br2923     Br  0.38030468  0.96039801  0.82117288     0.00500
Br2924     Br  0.41073623  0.94437900  0.89016194    -0.03900
Br2925     Br  0.36826142  0.89990656  0.90349595     0.00600
Br2926     Br  0.37131481  0.97459446  0.88542012    -0.03200
Br2927     Br  0.35803076  0.94737439  0.84953474    -0.04100
Br2928     Br  0.43313526  0.95873222  0.86270578    -0.00100
C2929       C  0.27804228  0.65131655  0.02118248     0.01300
C2930       C  0.27993857  0.65581737  0.00561367     0.04200
C2931       C  0.27154101  0.64834491  0.99383488    -0.11900
C2932       C  0.26068982  0.63684352  0.99756549     0.23500
C2933       C  0.25902731  0.63209419  0.01301290    -0.12500
C2934       C  0.26793671  0.63900884  0.02472005     0.04900
C2935       C  0.25032786  0.63032716  0.98548069     0.27300
C2936       C  0.23599387  0.63739969  0.98251845    -0.13200
C2937       C  0.22551503  0.63065695  0.97208979     0.05400
C2938       C  0.22913347  0.61657769  0.96472686    -0.09100
C2939       C  0.24375445  0.60977215  0.96730652     0.06200
C2940       C  0.25429629  0.61664557  0.97766736    -0.13500
Br2941     Br  0.24418516  0.61629245  0.01809884    -0.05600
Br2942     Br  0.29309777  0.67298459  0.00037516     0.00100
Br2943     Br  0.20629235  0.64100816  0.96771009     0.00500
Br2944     Br  0.27390774  0.60697606  0.98188256    -0.03900
Br2945     Br  0.26676840  0.63094235  0.04543841     0.00600
Br2946     Br  0.27469672  0.65393797  0.97254096    -0.03200
Br2947     Br  0.23044429  0.65599984  0.99341798    -0.04100
Br2948     Br  0.24901359  0.59043298  0.95765807    -0.00100
C2949       C  0.20288470  0.91555959  0.15597395     0.01300
C2950       C  0.21869256  0.91514076  0.15222149     0.04200
C2951       C  0.22351963  0.90884170  0.13806342    -0.11900
C2952       C  0.21256300  0.90261497  0.12779069     0.23500
C2953       C  0.19669356  0.90390280  0.13111125    -0.12500
C2954       C  0.19185585  0.91040282  0.14517960     0.04900
C2955       C  0.21771174  0.89237649  0.11506940     0.27300
C2956       C  0.21861700  0.89776527  0.09977517    -0.13200
C2957       C  0.22244711  0.88751018  0.08774686     0.05400
C2958       C  0.22598980  0.87192217  0.09109414    -0.09100
C2959       C  0.22542218  0.86669501  0.10654610     0.06200
C2960       C  0.22116118  0.87686148  0.11842218    -0.13500
Br2961     Br  0.18170690  0.89531809  0.11703845    -0.05600
Br2962     Br  0.23375608  0.92218851  0.16701333     0.00100
Br2963     Br  0.22305282  0.89504527  0.06678377     0.00500
Br2964     Br  0.21962821  0.86947041  0.13942150    -0.03900
Br2965     Br  0.17022203  0.91055594  0.15041230     0.00600
Br2966     Br  0.24519778  0.90741647  0.13324829    -0.03200
Br2967     Br  0.21475806  0.91924455  0.09545372    -0.04100
Br2968     Br  0.22934714  0.84534025  0.11161597    -0.00100
C2969       C  0.25897824  0.86193175  0.02289049     0.01300
C2970       C  0.27487361  0.85826280  0.02215523     0.04200
C2971       C  0.28471543  0.86635655  0.01212582    -0.11900
C2972       C  0.27877446  0.87783593  0.00228756     0.23500
C2973       C  0.26275626  0.88078176  0.00213641    -0.12500
C2974       C  0.25288521  0.87303906  0.01258268     0.04900
C2975       C  0.28963743  0.88670006  0.99229015     0.27300
C2976       C  0.29714787  0.89986130  0.99817574    -0.13200
C2977       C  0.30933861  0.90676375  0.98988840     0.05400
C2978       C  0.31377779  0.90087329  0.97533628    -0.09100
C2979       C  0.30588746  0.88796415  0.96925329     0.06200
C2980       C  0.29394837  0.88087011  0.97775380    -0.13500
Br2981     Br  0.25444877  0.89533632  0.98749507    -0.05600
Br2982     Br  0.28325223  0.84150285  0.03427957     0.00100
Br2983     Br  0.31999000  0.92423524  0.99868190     0.00500
Br2984     Br  0.28394131  0.86259680  0.96996241    -0.03900
Br2985     Br  0.23127407  0.87833602  0.01323984     0.00600
Br2986     Br  0.30650615  0.86169190  0.01177556    -0.03200
Br2987     Br  0.29091659  0.90814103  0.01787473    -0.04100
Br2988     Br  0.31237165  0.87895907  0.94997973    -0.00100
C2989       C  0.25800992  0.79799517  0.05763878     0.01300
C2990       C  0.26015082  0.79010616  0.07179838     0.04200
C2991       C  0.26621506  0.77502013  0.07191140    -0.11900
C2992       C  0.26939057  0.76740033  0.05793552     0.23500
C2993       C  0.26733905  0.77521428  0.04384033    -0.12500
C2994       C  0.26214288  0.79060158  0.04369626     0.04900
C2995       C  0.27440308  0.75098851  0.05804937     0.27300
C2996       C  0.29021223  0.74724562  0.05820318    -0.13200
C2997       C  0.29490420  0.73168815  0.05811325     0.05400
C2998       C  0.28380116  0.71976067  0.05773556    -0.09100
C2999       C  0.26797340  0.72354559  0.05830415     0.06200
C3000       C  0.26329845  0.73912096  0.05828856    -0.13500
Br3001     Br  0.27111265  0.76456088  0.02468013    -0.05600
Br3002     Br  0.25360953  0.79915460  0.09107248     0.00100
Br3003     Br  0.31654580  0.72678170  0.05990107     0.00500
Br3004     Br  0.24165180  0.74434256  0.05854123    -0.03900
Br3005     Br  0.26133028  0.80161714  0.02432399     0.00600
Br3006     Br  0.26984340  0.76447914  0.09120152    -0.03200
Br3007     Br  0.30538008  0.76352423  0.05884791    -0.04100
Br3008     Br  0.25264208  0.70746247  0.05897223    -0.00100
C3009       C  0.55623686  0.87338491  0.08858726     0.01300
C3010       C  0.56157223  0.88730142  0.08200154     0.04200
C3011       C  0.56597879  0.89968418  0.09156049    -0.11900
C3012       C  0.56543641  0.89813883  0.10774702     0.23500
C3013       C  0.55993481  0.88435528  0.11433421    -0.12500
C3014       C  0.55526172  0.87205012  0.10479773     0.04900
C3015       C  0.57148463  0.91072809  0.11773761     0.27300
C3016       C  0.58733381  0.91122616  0.12145960    -0.13200
C3017       C  0.59350432  0.92412385  0.12917890     0.05400
C3018       C  0.58379379  0.93641042  0.13346914    -0.09100
C3019       C  0.56776105  0.93527015  0.13097641     0.06200
C3020       C  0.56163323  0.92259012  0.12288546    -0.13500
Br3021     Br  0.55941747  0.88220192  0.13646955    -0.05600
Br3022     Br  0.56444353  0.88895494  0.05996428     0.00100
Br3023     Br  0.61541326  0.92554214  0.13283110     0.00500
Br3024     Br  0.53991395  0.92185140  0.11809746    -0.03900
Br3025     Br  0.54751006  0.85335156  0.11400637     0.00600
Br3026     Br  0.57343391  0.91862152  0.08253077    -0.03200
Br3027     Br  0.60067954  0.89456236  0.11522210    -0.04100
Br3028     Br  0.55426478  0.95115097  0.13874705    -0.00100
C3029       C  0.47789341  0.86254082  0.86381906     0.01300
C3030       C  0.47267067  0.87684744  0.86957453     0.04200
C3031       C  0.46776673  0.88847461  0.85931860    -0.11900
C3032       C  0.46772555  0.88578673  0.84326187     0.23500
C3033       C  0.47298061  0.87151179  0.83751467    -0.12500
C3034       C  0.47808655  0.85993988  0.84775939     0.04900
C3035       C  0.46218837  0.89809016  0.83257032     0.27300
C3036       C  0.44622339  0.90058655  0.83046439    -0.13200
C3037       C  0.44097619  0.91365828  0.82228721     0.05400
C3038       C  0.45168035  0.92432195  0.81625846    -0.09100
C3039       C  0.46759899  0.92110958  0.81727624     0.06200
C3040       C  0.47285347  0.90808032  0.82545646    -0.13500
Br3041     Br  0.47306826  0.86780490  0.81559609    -0.05600
Br3042     Br  0.47105725  0.88018855  0.89155414     0.00100
Br3043     Br  0.41913846  0.91763571  0.82053980     0.00500
Br3044     Br  0.49469273  0.90444394  0.82779099    -0.03900
Br3045     Br  0.48571668  0.84061683  0.83978247     0.00600
Br3046     Br  0.46094020  0.90812804  0.86726563    -0.03200
Br3047     Br  0.43158027  0.88662615  0.83973058    -0.04100
Br3048     Br  0.48220242  0.93481268  0.80761852    -0.00100
C3049       C  0.53401068  0.82584600  0.01650427     0.01300
C3050       C  0.54337942  0.81955690  0.00465993     0.04200
C3051       C  0.53785401  0.81890482  0.98936796    -0.11900
C3052       C  0.52279712  0.82393944  0.98585792     0.23500
C3053       C  0.51304763  0.82906014  0.99780473    -0.12500
C3054       C  0.51854293  0.82979830  0.01308660     0.04900
C3055       C  0.51737279  0.82426698  0.96954896     0.27300
C3056       C  0.51697401  0.83834403  0.96145003    -0.13200
C3057       C  0.51148929  0.83888784  0.94615731     0.05400
C3058       C  0.50687653  0.82516435  0.93857560    -0.09100
C3059       C  0.50787563  0.81094513  0.94659912     0.06200
C3060       C  0.51273740  0.81058990  0.96212018    -0.13500
Br3061     Br  0.49225254  0.83555398  0.99308894    -0.05600
Br3062     Br  0.56387379  0.81187886  0.00890315     0.00100
Br3063     Br  0.50947623  0.85878340  0.93628736     0.00500
Br3064     Br  0.51279223  0.79137023  0.97339374    -0.03900
Br3065     Br  0.50439266  0.83509284  0.02944979     0.00600
Br3066     Br  0.55117357  0.81181582  0.97296483    -0.03200
Br3067     Br  0.52380650  0.85700366  0.97152036    -0.04100
Br3068     Br  0.50336269  0.79167652  0.93634658    -0.00100
C3069       C  0.38557308  0.88817343  0.94741790     0.01300
C3070       C  0.40021933  0.89409805  0.94332276     0.04200
C3071       C  0.41203922  0.88404146  0.93850254    -0.11900
C3072       C  0.40918042  0.86810191  0.93724401     0.23500
C3073       C  0.39478917  0.86211487  0.94176699    -0.12500
C3074       C  0.38297367  0.87210342  0.94674465     0.04900
C3075       C  0.42095562  0.85782942  0.93016347     0.27300
C3076       C  0.42092211  0.85541014  0.91406317    -0.13200
C3077       C  0.43269759  0.84660908  0.90712221     0.05400
C3078       C  0.44471053  0.84048824  0.91622309    -0.09100
C3079       C  0.44435524  0.84234806  0.93238061     0.06200
C3080       C  0.43246086  0.85092977  0.93935021    -0.13500
Br3081     Br  0.39134022  0.84016867  0.94093784    -0.05600
Br3082     Br  0.40373963  0.91609078  0.94249106     0.00100
Br3083     Br  0.43299729  0.84386690  0.88504683     0.00500
Br3084     Br  0.43227996  0.85390609  0.96138821    -0.03900
Br3085     Br  0.36318546  0.86367052  0.95246090     0.00600
Br3086     Br  0.43212961  0.89208374  0.93322670    -0.03200
Br3087     Br  0.40523973  0.86501561  0.90146501    -0.04100
Br3088     Br  0.46048509  0.83340718  0.94489509    -0.00100
C3089       C  0.41120884  0.71710053  0.10291720     0.01300
C3090       C  0.39598020  0.72303486  0.10454630     0.04200
C3091       C  0.38396203  0.71745849  0.09512069    -0.11900
C3092       C  0.38686757  0.70591859  0.08411912     0.23500
C3093       C  0.40204077  0.70084456  0.08158279    -0.12500
C3094       C  0.41424587  0.70662969  0.09066131     0.04900
C3095       C  0.37368026  0.69817927  0.07637226     0.27300
C3096       C  0.36634859  0.68576744  0.08384556    -0.13200
C3097       C  0.35252629  0.67978186  0.07790244     0.05400
C3098       C  0.34587665  0.68623147  0.06452669    -0.09100
C3099       C  0.35393225  0.69766979  0.05623125     0.06200
C3100       C  0.36780297  0.70373493  0.06224018    -0.13500
Br3101     Br  0.40581577  0.68534143  0.06606037    -0.05600
Br3102     Br  0.39073734  0.73822809  0.12001360     0.00100
Br3103     Br  0.34266434  0.66260498  0.08807261     0.00500
Br3104     Br  0.37842460  0.72011599  0.05161619    -0.03900
Br3105     Br  0.43501708  0.70024606  0.08567008     0.00600
Br3106     Br  0.36311762  0.72498231  0.09775586    -0.03200
Br3107     Br  0.37489805  0.67743918  0.10267001    -0.04100
Br3108     Br  0.34563618  0.70556647  0.03715605    -0.00100
C3109       C  0.47815133  0.74766913  0.11746824     0.01300
C3110       C  0.49169303  0.75147885  0.12567800     0.04200
C3111       C  0.50229979  0.76213520  0.11943785    -0.11900
C3112       C  0.49974359  0.76855529  0.10470639     0.23500
C3113       C  0.48671668  0.76399591  0.09609567    -0.12500
C3114       C  0.47582186  0.75380566  0.10255387     0.04900
C3115       C  0.51051118  0.78036763  0.09836074     0.27300
C3116       C  0.50776150  0.79614744  0.10106405    -0.13200
C3117       C  0.51737495  0.80740302  0.09436311     0.05400
C3118       C  0.52974010  0.80297026  0.08466389    -0.09100
C3119       C  0.53285269  0.78709140  0.08250182     0.06200
C3120       C  0.52322838  0.77587348  0.08930838    -0.13500
Br3121     Br  0.48382157  0.77184988  0.07545502    -0.05600
Br3122     Br  0.49538524  0.74267162  0.14576910     0.00100
Br3123     Br  0.51378306  0.82889337  0.09907040     0.00500
Br3124     Br  0.52705096  0.75424265  0.08583404    -0.03900
Br3125     Br  0.45777933  0.74802424  0.09083382     0.00600
Br3126     Br  0.52010487  0.76842711  0.13121406    -0.03200
Br3127     Br  0.49054314  0.80232657  0.11375026    -0.04100
Br3128     Br  0.54966583  0.78044189  0.06950277    -0.00100
C3129       C  0.43814472  0.76312407  0.26128908     0.01300
C3130       C  0.42589962  0.76900902  0.25225984     0.04200
C3131       C  0.42510564  0.76567712  0.23635932    -0.11900
C3132       C  0.43636026  0.75617025  0.22946644     0.23500
C3133       C  0.44846716  0.75014724  0.23853942    -0.12500
C3134       C  0.44960028  0.75398687  0.25426742     0.04900
C3135       C  0.43591210  0.75277942  0.21262858     0.27300
C3136       C  0.42584790  0.74140647  0.20680394    -0.13200
C3137       C  0.42666314  0.73704081  0.19117689     0.05400
C3138       C  0.43778805  0.74376094  0.18138999    -0.09100
C3139       C  0.44768183  0.75528885  0.18713272     0.06200
C3140       C  0.44649878  0.76004550  0.20262038    -0.13500
Br3141     Br  0.46350223  0.73650277  0.22936690    -0.05600
Br3142     Br  0.41085871  0.78268005  0.26139149     0.00100
Br3143     Br  0.41333786  0.72093501  0.18349437     0.00500
Br3144     Br  0.45959398  0.77632060  0.21029630    -0.03900
Br3145     Br  0.46700421  0.74682223  0.26602547     0.00600
Br3146     Br  0.40885632  0.77447085  0.22392104    -0.03200
Br3147     Br  0.41146791  0.73125306  0.22041569    -0.04100
Br3148     Br  0.46299392  0.76439552  0.17381035    -0.00100
C3149       C  0.43207010  0.82285180  0.29015661     0.01300
C3150       C  0.42248770  0.83266157  0.29886326     0.04200
C3151       C  0.41586575  0.84580653  0.29199706    -0.11900
C3152       C  0.41854694  0.84906868  0.27627249     0.23500
C3153       C  0.42877897  0.83971339  0.26776810    -0.12500
C3154       C  0.43545852  0.82656658  0.27468783     0.04900
C3155       C  0.40919649  0.86125761  0.26853587     0.27300
C3156       C  0.39364111  0.85820066  0.26489311    -0.13200
C3157       C  0.38371647  0.87028656  0.26052297     0.05400
C3158       C  0.38950499  0.88544377  0.25888816    -0.09100
C3159       C  0.40540420  0.88821567  0.26122081     0.06200
C3160       C  0.41518627  0.87618009  0.26621249    -0.13500
Br3161     Br  0.43286203  0.84441177  0.24641593    -0.05600
Br3162     Br  0.41750346  0.82740514  0.31991852     0.00100
Br3163     Br  0.36188052  0.86612950  0.25856021     0.00500
Br3164     Br  0.43670713  0.88013200  0.27023536    -0.03900
Br3165     Br  0.44809002  0.81281829  0.26261222     0.00600
Br3166     Br  0.40230998  0.85890489  0.30386994    -0.03200
Br3167     Br  0.38583872  0.83738966  0.26640154    -0.04100
Br3168     Br  0.41386430  0.90842301  0.25739034    -0.00100
C3169       C  0.63484232  0.78862861  0.60931725     0.01300
C3170       C  0.63164739  0.78691740  0.59343202     0.04200
C3171       C  0.64234845  0.79210670  0.58232085    -0.11900
C3172       C  0.65632236  0.79894131  0.58704146     0.23500
C3173       C  0.65960709  0.80046579  0.60290733    -0.12500
C3174       C  0.64897490  0.79524606  0.61400337     0.04900
C3175       C  0.66786275  0.80432341  0.57552452     0.27300
C3176       C  0.68091753  0.79516212  0.57239902    -0.13200
C3177       C  0.69334926  0.80135355  0.56404852     0.05400
C3178       C  0.69290556  0.81680732  0.55896369    -0.09100
C3179       C  0.67924778  0.82545423  0.56070214     0.06200
C3180       C  0.66673341  0.81922192  0.56903601    -0.13500
Br3181     Br  0.67852822  0.81029163  0.60942611    -0.05600
Br3182     Br  0.61287483  0.77691650  0.58690632     0.00100
Br3183     Br  0.71136751  0.78883576  0.56007710     0.00500
Br3184     Br  0.64855711  0.83151297  0.57268277    -0.03900
Br3185     Br  0.65349762  0.79812501  0.63564255     0.00600
Br3186     Br  0.63782675  0.79018584  0.56062151    -0.03200
Br3187     Br  0.68228709  0.77454346  0.58067312    -0.04100
Br3188     Br  0.67824464  0.84630301  0.55302941    -0.00100
C3189       C  0.61024370  0.82851182  0.65677411     0.01300
C3190       C  0.62023790  0.83743594  0.64758577     0.04200
C3191       C  0.62723209  0.85071466  0.65372716    -0.11900
C3192       C  0.62428975  0.85505287  0.66911863     0.23500
C3193       C  0.61354075  0.84666597  0.67797594    -0.12500
C3194       C  0.60643003  0.83345712  0.67175521     0.04900
C3195       C  0.63384483  0.86722263  0.67647208     0.27300
C3196       C  0.64817913  0.86323864  0.68303102    -0.13200
C3197       C  0.65788819  0.87473942  0.68915562     0.05400
C3198       C  0.65334234  0.89042744  0.68855560    -0.09100
C3199       C  0.63848485  0.89419960  0.68283824     0.06200
C3200       C  0.62886810  0.88265232  0.67667884    -0.13500
Br3201     Br  0.60973213  0.85248379  0.69909018    -0.05600
Br3202     Br  0.62490956  0.83095025  0.62680555     0.00100
Br3203     Br  0.67766198  0.86868840  0.69749190     0.00500
Br3204     Br  0.60903933  0.88797396  0.66804400    -0.03900
Br3205     Br  0.59259821  0.82128649  0.68420433     0.00600
Br3206     Br  0.64185266  0.86223962  0.64152742    -0.03200
Br3207     Br  0.65471641  0.84192044  0.68292232    -0.04100
Br3208     Br  0.63089372  0.91512248  0.68383188    -0.00100
C3209       C  0.56448091  0.74699294  0.83218691     0.01300
C3210       C  0.56437937  0.76334563  0.83151788     0.04200
C3211       C  0.55286524  0.77185072  0.83925797    -0.11900
C3212       C  0.54132590  0.76425252  0.84779644     0.23500
C3213       C  0.54119190  0.74800807  0.84831156    -0.12500
C3214       C  0.55271368  0.73939692  0.84061871     0.04900
C3215       C  0.53002291  0.77352562  0.85697129     0.27300
C3216       C  0.53429975  0.77916466  0.87161198    -0.13200
C3217       C  0.52450660  0.78934675  0.87966020     0.05400
C3218       C  0.51025591  0.79397081  0.87318413    -0.09100
C3219       C  0.50568424  0.78784226  0.85880067     0.06200
C3220       C  0.51555362  0.77767607  0.85071568    -0.13500
Br3221     Br  0.52535335  0.73760975  0.85995132    -0.05600
Br3222     Br  0.57970306  0.77447406  0.81975968     0.00100
Br3223     Br  0.53063569  0.79682247  0.89973394     0.00500
Br3224     Br  0.50960284  0.76989645  0.83075425    -0.03900
Br3225     Br  0.55283984  0.71722961  0.84277317     0.00600
Br3226     Br  0.55290100  0.79411295  0.83837279    -0.03200
Br3227     Br  0.55389981  0.77323163  0.88041269    -0.04100
Br3228     Br  0.48645980  0.79428307  0.84960295    -0.00100
C3229       C  0.60382530  0.74395579  0.76794304     0.01300
C3230       C  0.59312824  0.75501515  0.76262709     0.04200
C3231       C  0.59381679  0.76034053  0.74728500    -0.11900
C3232       C  0.60434143  0.75369794  0.73681558     0.23500
C3233       C  0.61494727  0.74252573  0.74208842    -0.12500
C3234       C  0.61510224  0.73813106  0.75774219     0.04900
C3235       C  0.60407792  0.75823131  0.72022698     0.27300
C3236       C  0.59237936  0.75262363  0.71039195    -0.13200
C3237       C  0.59207035  0.75698384  0.69472612     0.05400
C3238       C  0.60378511  0.76650654  0.68864093    -0.09100
C3239       C  0.61551251  0.77206262  0.69848393     0.06200
C3240       C  0.61550367  0.76814244  0.71426861    -0.13500
Br3241     Br  0.62876889  0.73270698  0.72766401    -0.05600
Br3242     Br  0.57753698  0.76292745  0.77637719     0.00100
Br3243     Br  0.57562172  0.74974704  0.68162729     0.00500
Br3244     Br  0.63076297  0.77683510  0.72795128    -0.03900
Br3245     Br  0.63037090  0.72357974  0.76494501     0.00600
Br3246     Br  0.58044209  0.77683263  0.74058105    -0.03200
Br3247     Br  0.57674066  0.73895919  0.71844476    -0.04100
Br3248     Br  0.63105553  0.78589699  0.69058730    -0.00100
C3249       C  0.60729364  0.67956409  0.79193678     0.01300
C3250       C  0.60774470  0.67788954  0.77578453     0.04200
C3251       C  0.61546598  0.66525673  0.76912972    -0.11900
C3252       C  0.62249959  0.65410436  0.77864950     0.23500
C3253       C  0.62089075  0.65509067  0.79481434    -0.12500
C3254       C  0.61338367  0.66787541  0.80145723     0.04900
C3255       C  0.63312111  0.64247114  0.77188929     0.27300
C3256       C  0.62774276  0.62774159  0.76769880    -0.13200
C3257       C  0.63822808  0.61638863  0.76266882     0.05400
C3258       C  0.65413901  0.61977556  0.76168267    -0.09100
C3259       C  0.65940550  0.63476622  0.76527848     0.06200
C3260       C  0.64890965  0.64604778  0.77037145    -0.13500
Br3261     Br  0.63008610  0.63951700  0.80782521    -0.05600
Br3262     Br  0.59829175  0.69335079  0.76285479     0.00100
Br3263     Br  0.63074603  0.59616933  0.75716264     0.00500
Br3264     Br  0.65623058  0.66630204  0.77604049    -0.03900
Br3265     Br  0.61267895  0.67011484  0.82358291     0.00600
Br3266     Br  0.61750510  0.66382631  0.74703414    -0.03200
Br3267     Br  0.60606726  0.62305317  0.76930865    -0.04100
Br3268     Br  0.68116555  0.63961682  0.76475822    -0.00100
C3269       C  0.47146977  0.75170265  0.32983508     0.01300
C3270       C  0.47632003  0.75567653  0.34488187     0.04200
C3271       C  0.48664781  0.74603050  0.35304909    -0.11900
C3272       C  0.49217344  0.73231181  0.34627522     0.23500
C3273       C  0.48719401  0.72823733  0.33134922    -0.12500
C3274       C  0.47681859  0.73779865  0.32323983     0.04900
C3275       C  0.50241731  0.72160003  0.35510854     0.27300
C3276       C  0.51849783  0.72157623  0.35264574    -0.13200
C3277       C  0.52794349  0.71043103  0.35989284     0.05400
C3278       C  0.52146099  0.69962818  0.37026943    -0.09100
C3279       C  0.50537681  0.70008253  0.37312590     0.06200
C3280       C  0.49591930  0.71086244  0.36541911    -0.13500
Br3281     Br  0.49427698  0.70920885  0.32219962    -0.05600
Br3282     Br  0.46768448  0.77352936  0.35491591     0.00100
Br3283     Br  0.54954554  0.70934256  0.35456712     0.00500
Br3284     Br  0.47391494  0.71097069  0.36892105    -0.03900
Br3285     Br  0.46989720  0.73160771  0.30309036     0.00600
Br3286     Br  0.49284971  0.75123078  0.37377480    -0.03200
Br3287     Br  0.52753669  0.73696011  0.33936697    -0.04100
Br3288     Br  0.49611434  0.68645083  0.38807988    -0.00100
C3289       C  0.59197140  0.66520948  0.41240767     0.01300
C3290       C  0.59352963  0.66531366  0.42860674     0.04200
C3291       C  0.60710768  0.65966699  0.43555569    -0.11900
C3292       C  0.61904294  0.65366229  0.42631877     0.23500
C3293       C  0.61800331  0.65477119  0.41010457    -0.12500
C3294       C  0.60450370  0.66060477  0.40315825     0.04900
C3295       C  0.63121695  0.64376324  0.43330089     0.27300
C3296       C  0.64620182  0.64943863  0.43597634    -0.13200
C3297       C  0.65822050  0.63918378  0.43997459     0.05400
C3298       C  0.65516744  0.62324635  0.44166675    -0.09100
C3299       C  0.63987881  0.61782164  0.44000945     0.06200
C3300       C  0.62796938  0.62807106  0.43595110    -0.13500
Br3301     Br  0.63448812  0.64685081  0.39741558    -0.05600
Br3302     Br  0.57666319  0.67241116  0.44125777     0.00100
Br3303     Br  0.67879592  0.64705792  0.44314637     0.00500
Br3304     Br  0.60713328  0.62052133  0.43347589    -0.03900
Br3305     Br  0.60252280  0.66068290  0.38098460     0.00600
Br3306     Br  0.60890529  0.65882484  0.45771379    -0.03200
Br3307     Br  0.65009400  0.67125208  0.43415892    -0.04100
Br3308     Br  0.63525190  0.59609301  0.44167418    -0.00100
C3309       C  0.48947902  0.63951119  0.59411094     0.01300
C3310       C  0.48734061  0.62413698  0.58911006     0.04200
C3311       C  0.48188818  0.61292963  0.59947205    -0.11900
C3312       C  0.47925157  0.61678043  0.61502639     0.23500
C3313       C  0.48197965  0.63188981  0.62022563    -0.12500
C3314       C  0.48694401  0.64329674  0.60976936     0.04900
C3315       C  0.47276691  0.60495970  0.62552042     0.27300
C3316       C  0.45663328  0.60329702  0.62667717    -0.13200
C3317       C  0.45035391  0.59008529  0.63367234     0.05400
C3318       C  0.46022352  0.57849361  0.63932003    -0.09100
C3319       C  0.47631166  0.58086626  0.63950232     0.06200
C3320       C  0.48259659  0.59414193  0.63263994    -0.13500
Br3321     Br  0.47816297  0.63696510  0.64154084    -0.05600
Br3322     Br  0.49066215  0.61840015  0.56781917     0.00100
Br3323     Br  0.42831730  0.58708431  0.63405027     0.00500
Br3324     Br  0.50465673  0.59701040  0.63194340    -0.03900
Br3325     Br  0.49040648  0.66403190  0.61703125     0.00600
Br3326     Br  0.47678646  0.59250546  0.59212477    -0.03200
Br3327     Br  0.44324059  0.61844182  0.61734626    -0.04100
Br3328     Br  0.48970815  0.56550444  0.64852300    -0.00100
C3329       C  0.51902044  0.70671987  0.58080629     0.01300
C3330       C  0.51231932  0.71546494  0.59287239     0.04200
C3331       C  0.52131073  0.72619333  0.60118319    -0.11900
C3332       C  0.53702261  0.72823100  0.59759992     0.23500
C3333       C  0.54363482  0.71988697  0.58536926    -0.12500
C3334       C  0.53472002  0.70922034  0.57699057     0.04900
C3335       C  0.54691976  0.73860295  0.60704106     0.27300
C3336       C  0.54768437  0.75448363  0.60374591    -0.13200
C3337       C  0.55827844  0.76398195  0.61165603     0.05400
C3338       C  0.56817987  0.75759702  0.62301478    -0.09100
C3339       C  0.56679606  0.74175125  0.62675744     0.06200
C3340       C  0.55632280  0.73231751  0.61870680    -0.13500
Br3341     Br  0.56513943  0.72298982  0.58031473    -0.05600
Br3342     Br  0.49116346  0.71213046  0.59899425     0.00100
Br3343     Br  0.55967939  0.78547491  0.60601059     0.00500
Br3344     Br  0.55508896  0.71055189  0.62332871    -0.03900
Br3345     Br  0.54426745  0.69848490  0.56004282     0.00600
Br3346     Br  0.51229999  0.73786738  0.61783710    -0.03200
Br3347     Br  0.53451260  0.76301773  0.58792323    -0.04100
Br3348     Br  0.57875031  0.73275680  0.64329273    -0.00100
C3349       C  0.51074542  0.66492875  0.51547999     0.01300
C3350       C  0.50205489  0.65478301  0.50620037     0.04200
C3351       C  0.50528318  0.65352587  0.49034331    -0.11900
C3352       C  0.51688541  0.66273998  0.48368995     0.23500
C3353       C  0.52593922  0.67242675  0.49307212    -0.12500
C3354       C  0.52301716  0.67331682  0.50898597     0.04900
C3355       C  0.51978082  0.66220868  0.46685845     0.27300
C3356       C  0.53013339  0.65128854  0.46081631    -0.13200
C3357       C  0.53377528  0.65144238  0.44501030     0.05400
C3358       C  0.52757654  0.66298691  0.43529133    -0.09100
C3359       C  0.51711493  0.67387407  0.44138612     0.06200
C3360       C  0.51298512  0.67327611  0.45707943    -0.13500
Br3361     Br  0.54233317  0.68447300  0.48402933    -0.05600
Br3362     Br  0.48533393  0.64306775  0.51507488     0.00100
Br3363     Br  0.54827395  0.63652038  0.43709801     0.00500
Br3364     Br  0.49842839  0.68792427  0.46542493    -0.03900
Br3365     Br  0.53629007  0.68539635  0.52199465     0.00600
Br3366     Br  0.49389508  0.63922215  0.47768451    -0.03200
Br3367     Br  0.54006692  0.63679695  0.47452407    -0.04100
Br3368     Br  0.50850247  0.68971339  0.42836226    -0.00100
C3369       C  0.24212531  0.36653415  0.59817565     0.01300
C3370       C  0.23994261  0.35945561  0.61274627     0.04200
C3371       C  0.23406050  0.36804335  0.62520458    -0.11900
C3372       C  0.23052043  0.38377892  0.62336488     0.23500
C3373       C  0.23353432  0.39111414  0.60919298    -0.12500
C3374       C  0.23932105  0.38254105  0.59662761     0.04900
C3375       C  0.22374649  0.39247276  0.63651803     0.27300
C3376       C  0.20759887  0.39286264  0.63859822    -0.13200
C3377       C  0.20128074  0.39933975  0.65209427     0.05400
C3378       C  0.21106452  0.40571968  0.66340198    -0.09100
C3379       C  0.22718260  0.40545974  0.66126374     0.06200
C3380       C  0.23350210  0.39893075  0.64781014    -0.13500
Br3381     Br  0.22959218  0.41291169  0.60709187    -0.05600
Br3382     Br  0.24398372  0.33774873  0.61575132     0.00100
Br3383     Br  0.17937419  0.39795842  0.65591750     0.00500
Br3384     Br  0.25557466  0.39801988  0.64514313    -0.03900
Br3385     Br  0.24399884  0.39296637  0.57754500     0.00600
Br3386     Br  0.23037958  0.35819266  0.64485870    -0.03200
Br3387     Br  0.19421457  0.38370727  0.62335230    -0.04100
Br3388     Br  0.24062154  0.41340109  0.67715014    -0.00100
C3389       C  0.13639641  0.29035546  0.60743535     0.01300
C3390       C  0.13352337  0.30053783  0.59487914     0.04200
C3391       C  0.14584382  0.30623923  0.58592603    -0.11900
C3392       C  0.16101400  0.30133700  0.58885907     0.23500
C3393       C  0.16378453  0.28999757  0.60014208    -0.12500
C3394       C  0.15162020  0.28454346  0.60947754     0.04900
C3395       C  0.17428028  0.30935773  0.58149789     0.27300
C3396       C  0.18126451  0.30347339  0.56804534    -0.13200
C3397       C  0.19498253  0.31016361  0.56238134     0.05400
C3398       C  0.20178879  0.32266657  0.57025387    -0.09100
C3399       C  0.19423782  0.32910014  0.58316391     0.06200
C3400       C  0.18049128  0.32251786  0.58870202    -0.13500
Br3401     Br  0.18464031  0.28272130  0.60336095    -0.05600
Br3402     Br  0.11279725  0.30669543  0.58936859     0.00100
Br3403     Br  0.20503317  0.30147433  0.54455299     0.00500
Br3404     Br  0.17032669  0.33118143  0.60654226    -0.03900
Br3405     Br  0.15659843  0.26982142  0.62548201     0.00600
Br3406     Br  0.14222331  0.32155351  0.57014623    -0.03200
Br3407     Br  0.17231821  0.28589588  0.55781717    -0.04100
Br3408     Br  0.20271705  0.34696679  0.59337326    -0.00100
C3409       C  0.31101345  0.13442393  0.59603583     0.01300
C3410       C  0.31490102  0.14021881  0.61078756     0.04200
C3411       C  0.32103148  0.13032096  0.62210118    -0.11900
C3412       C  0.32399999  0.11474161  0.61860846     0.23500
C3413       C  0.32030971  0.10890910  0.60392308    -0.12500
C3414       C  0.31363499  0.11865859  0.59271871     0.04900
C3415       C  0.33142918  0.10487696  0.63049020     0.27300
C3416       C  0.34747800  0.10603476  0.63298833    -0.13200
C3417       C  0.35402445  0.10010317  0.64661417     0.05400
C3418       C  0.34456235  0.09285050  0.65762198    -0.09100
C3419       C  0.32874202  0.09071363  0.65463112     0.06200
C3420       C  0.32219544  0.09658333  0.64098260    -0.13500
Br3421     Br  0.32491251  0.08769189  0.59910488    -0.05600
Br3422     Br  0.31362714  0.16201019  0.61520173     0.00100
Br3423     Br  0.37556975  0.10354438  0.65113194     0.00500
Br3424     Br  0.30035046  0.09453339  0.63730965    -0.03900
Br3425     Br  0.30802023  0.11026775  0.57288082     0.00600
Br3426     Br  0.32594794  0.13818005  0.64240224    -0.03200
Br3427     Br  0.36016031  0.11714088  0.61846591    -0.04100
Br3428     Br  0.31580415  0.08121806  0.67006235    -0.00100
C3429       C  0.28613969  0.21208853  0.56149079     0.01300
C3430       C  0.28749486  0.22073653  0.57526288     0.04200
C3431       C  0.28372371  0.23657086  0.57542148    -0.11900
C3432       C  0.27893363  0.24403450  0.56177355     0.23500
C3433       C  0.27828392  0.23561570  0.54787761    -0.12500
C3434       C  0.28169995  0.21969818  0.54774026     0.04900
C3435       C  0.27411839  0.26059254  0.56208458     0.27300
C3436       C  0.25902965  0.26455256  0.56672192    -0.13200
C3437       C  0.25415057  0.28005791  0.56640789     0.05400
C3438       C  0.26436798  0.29179100  0.56165955    -0.09100
C3439       C  0.27958770  0.28792034  0.55741985     0.06200
C3440       C  0.28441174  0.27234933  0.55749481    -0.13500
Br3441     Br  0.27291940  0.24605329  0.52894149    -0.05600
Br3442     Br  0.29579464  0.21133052  0.59371161     0.00100
Br3443     Br  0.23353992  0.28530266  0.57299375     0.00500
Br3444     Br  0.30504166  0.26701824  0.55110318    -0.03900
Br3445     Br  0.27978102  0.20835848  0.52868241     0.00600
Br3446     Br  0.28547050  0.24822391  0.59429141    -0.03200
Br3447     Br  0.24500849  0.24865868  0.57350077    -0.04100
Br3448     Br  0.29364112  0.30392657  0.55107017    -0.00100
C3449       C  0.34529115  0.18285010  0.57227339     0.01300
C3450       C  0.35550360  0.17291428  0.58010622     0.04200
C3451       C  0.36895720  0.17884501  0.58699828    -0.11900
C3452       C  0.37190494  0.19483190  0.58663801     0.23500
C3453       C  0.36195406  0.20469318  0.57833865    -0.12500
C3454       C  0.34866858  0.19869127  0.57114719     0.04900
C3455       C  0.38468031  0.20133179  0.59608325     0.27300
C3456       C  0.38238889  0.20395569  0.61196224    -0.13200
C3457       C  0.39456108  0.20947756  0.62118283     0.05400
C3458       C  0.40909262  0.21269703  0.61452886    -0.09100
C3459       C  0.41144087  0.20981734  0.59864732     0.06200
C3460       C  0.39919581  0.20431412  0.58943802    -0.13500
Br3461     Br  0.36618589  0.22649696  0.57744947    -0.05600
Br3462     Br  0.35033603  0.15141197  0.58256171     0.00100
Br3463     Br  0.39162088  0.21109629  0.64323921     0.00500
Br3464     Br  0.40219550  0.20073341  0.56768829    -0.03900
Br3465     Br  0.33450298  0.21224752  0.56056433     0.00600
Br3466     Br  0.38309899  0.16519219  0.59747523    -0.03200
Br3467     Br  0.36254113  0.19969673  0.62114380    -0.04100
Br3468     Br  0.43136083  0.21333863  0.58937551    -0.00100
C3469       C  0.30777537  0.86701413  0.35801943     0.01300
C3470       C  0.30968119  0.86241894  0.34248395     0.04200
C3471       C  0.31559816  0.87288515  0.33157876    -0.11900
C3472       C  0.32049945  0.88765789  0.33625872     0.23500
C3473       C  0.31882582  0.89218932  0.35174117    -0.12500
C3474       C  0.31191289  0.88214161  0.36246020     0.04900
C3475       C  0.32827084  0.89791671  0.32496233     0.27300
C3476       C  0.34395127  0.89547132  0.32146630    -0.13200
C3477       C  0.35071262  0.90316039  0.30892050     0.05400
C3478       C  0.34178747  0.91310040  0.29966837    -0.09100
C3479       C  0.32649256  0.91659981  0.30394534     0.06200
C3480       C  0.31976078  0.90907815  0.31669992    -0.13500
Br3481     Br  0.32699006  0.91176060  0.35840141    -0.05600
Br3482     Br  0.30577405  0.84138609  0.33621769     0.00100
Br3483     Br  0.37204422  0.89944138  0.30372400     0.00500
Br3484     Br  0.29862074  0.91322914  0.32226728    -0.03900
Br3485     Br  0.30767541  0.88940258  0.38307192     0.00600
Br3486     Br  0.31779463  0.86674094  0.31026723    -0.03200
Br3487     Br  0.35580912  0.88066660  0.33314746    -0.04100
Br3488     Br  0.31435988  0.93051417  0.29148786    -0.00100
C3489       C  0.27681412  0.79068706  0.38609987     0.01300
C3490       C  0.27035744  0.78288603  0.39885481     0.04200
C3491       C  0.26615593  0.76726453  0.39757483    -0.11900
C3492       C  0.26792058  0.75945417  0.38343458     0.23500
C3493       C  0.27361504  0.76739812  0.37047333    -0.12500
C3494       C  0.27832562  0.78288822  0.37184318     0.04900
C3495       C  0.26387630  0.74283052  0.38246798     0.27300
C3496       C  0.27533498  0.73147583  0.38464527    -0.13200
C3497       C  0.27111488  0.71586392  0.38633102     0.05400
C3498       C  0.25540007  0.71165307  0.38617199    -0.09100
C3499       C  0.24410324  0.72287532  0.38269680     0.06200
C3500       C  0.24835383  0.73840467  0.38074931    -0.13500
Br3501     Br  0.27511725  0.75690204  0.35091968    -0.05600
Br3502     Br  0.26673634  0.79365239  0.41799741     0.00100
Br3503     Br  0.28680495  0.70044443  0.38955336     0.00500
Br3504     Br  0.23295274  0.75377215  0.37598377    -0.03900
Br3505     Br  0.28802365  0.79284310  0.35443304     0.00600
Br3506     Br  0.25822746  0.75634476  0.41530358    -0.03200
Br3507     Br  0.29673859  0.73747474  0.38586185    -0.04100
Br3508     Br  0.22281613  0.71693677  0.38009493    -0.00100
C3509       C  0.34108916  0.81504887  0.38076005     0.01300
C3510       C  0.34307230  0.79901111  0.37910212     0.04200
C3511       C  0.35629775  0.79316270  0.37171987    -0.11900
C3512       C  0.36758778  0.80334929  0.36597279     0.23500
C3513       C  0.36600088  0.81935368  0.36839185    -0.12500
C3514       C  0.35268345  0.82520653  0.37562926     0.04900
C3515       C  0.38030372  0.79734058  0.35615918     0.27300
C3516       C  0.39386257  0.79137208  0.36287687    -0.13200
C3517       C  0.40572857  0.78549006  0.35344536     0.05400
C3518       C  0.40415776  0.78574531  0.33724407    -0.09100
C3519       C  0.39049328  0.79160631  0.33054553     0.06200
C3520       C  0.37864285  0.79741602  0.33997848    -0.13500
Br3521     Br  0.38169662  0.83325978  0.36097282    -0.05600
Br3522     Br  0.32724486  0.78513188  0.38633573     0.00100
Br3523     Br  0.42385270  0.77652009  0.36273718     0.00500
Br3524     Br  0.36026246  0.80599034  0.33070949    -0.03900
Br3525     Br  0.34954793  0.84719016  0.37706873     0.00600
Br3526     Br  0.35857062  0.77125015  0.36865093    -0.03200
Br3527     Br  0.39625192  0.79168241  0.38499100    -0.04100
Br3528     Br  0.38826651  0.79264394  0.30837501    -0.00100
C3529       C  0.08846429  0.16233901  0.41738015     0.01300
C3530       C  0.09020640  0.16216505  0.43356559     0.04200
C3531       C  0.10345205  0.15557064  0.44034853    -0.11900
C3532       C  0.11499127  0.14902381  0.43097054     0.23500
C3533       C  0.11393128  0.15048277  0.41479389    -0.12500
C3534       C  0.10059646  0.15691956  0.40799245     0.04900
C3535       C  0.12695254  0.13872982  0.43786073     0.27300
C3536       C  0.14085245  0.14471569  0.44383215    -0.13200
C3537       C  0.15241915  0.13463861  0.44932655     0.05400
C3538       C  0.15012789  0.11854247  0.44890997    -0.09100
C3539       C  0.13589213  0.11260181  0.44364691     0.06200
C3540       C  0.12442318  0.12265722  0.43802838    -0.13500
Br3541     Br  0.13047352  0.14280262  0.40204047    -0.05600
Br3542     Br  0.07405204  0.17038708  0.44645140     0.00100
Br3543     Br  0.17126540  0.14283817  0.45787029     0.00500
Br3544     Br  0.10537890  0.11436680  0.42991308    -0.03900
Br3545     Br  0.09825257  0.15671927  0.38587234     0.00600
Br3546     Br  0.10550076  0.15480678  0.46248848    -0.03200
Br3547     Br  0.14415781  0.16667496  0.44409453    -0.04100
Br3548     Br  0.13231942  0.09060847  0.44312983    -0.00100
C3549       C  0.21910513  0.10660053  0.48146958     0.01300
C3550       C  0.21865952  0.10479233  0.49779938     0.04200
C3551       C  0.23021604  0.11143098  0.50721244    -0.11900
C3552       C  0.24237130  0.11992959  0.50060872     0.23500
C3553       C  0.24313833  0.12145315  0.48446018    -0.12500
C3554       C  0.23157980  0.11498953  0.47493137     0.04900
C3555       C  0.25364509  0.12829411  0.51069466     0.27300
C3556       C  0.24964753  0.14279811  0.51683720    -0.13200
C3557       C  0.26001146  0.15078236  0.52649729     0.05400
C3558       C  0.27458381  0.14439770  0.53011931    -0.09100
C3559       C  0.27883875  0.13010916  0.52350456     0.06200
C3560       C  0.26830842  0.12199439  0.51401703    -0.13500
Br3561     Br  0.26006758  0.13277427  0.47546629    -0.05600
Br3562     Br  0.20259535  0.09297075  0.50779238     0.00100
Br3563     Br  0.25443733  0.17093988  0.53412682     0.00500
Br3564     Br  0.27371423  0.10201718  0.50587934    -0.03900
Br3565     Br  0.23272085  0.11875807  0.45299735     0.00600
Br3566     Br  0.22950418  0.10897912  0.52936313    -0.03200
Br3567     Br  0.22980755  0.15171048  0.51199775    -0.04100
Br3568     Br  0.29884158  0.12131683  0.52780470    -0.00100
C3569       C  0.17773441  0.07020887  0.40987042     0.01300
C3570       C  0.18391407  0.05564882  0.40612089     0.04200
C3571       C  0.17742345  0.04693404  0.39400828    -0.11900
C3572       C  0.16471608  0.05278188  0.38567234     0.23500
C3573       C  0.15937022  0.06784504  0.38863967    -0.12500
C3574       C  0.16595211  0.07656975  0.40063180     0.04900
C3575       C  0.15679795  0.04332488  0.37374891     0.27300
C3576       C  0.16214757  0.04350246  0.35844539    -0.13200
C3577       C  0.15317728  0.03695998  0.34660868     0.05400
C3578       C  0.13841413  0.03083743  0.34990202    -0.09100
C3579       C  0.13369558  0.02940881  0.36547394     0.06200
C3580       C  0.14292889  0.03562292  0.37734764    -0.13500
Br3581     Br  0.14264369  0.07627832  0.37652388    -0.05600
Br3582     Br  0.20065014  0.04731437  0.41820208     0.00100
Br3583     Br  0.16128919  0.03639323  0.32587107     0.00500
Br3584     Br  0.13604184  0.03469938  0.39850645    -0.03900
Br3585     Br  0.15892342  0.09732234  0.40443177     0.00600
Br3586     Br  0.18551835  0.02680970  0.38915960    -0.03200
Br3587     Br  0.18121041  0.05388423  0.35358517    -0.04100
Br3588     Br  0.11407850  0.02022422  0.37075705    -0.00100
C3589       C  0.22248599  0.89480235  0.47580838     0.01300
C3590       C  0.23098835  0.88200848  0.48135830     0.04200
C3591       C  0.24165177  0.87440902  0.47166535    -0.11900
C3592       C  0.24407780  0.87963305  0.45646504     0.23500
C3593       C  0.23576950  0.89245622  0.45094989    -0.12500
C3594       C  0.22493567  0.89991372  0.46048262     0.04900
C3595       C  0.25429865  0.87088459  0.44576378     0.27300
C3596       C  0.27030548  0.87374454  0.44526177    -0.13200
C3597       C  0.27974302  0.86576399  0.43463701     0.05400
C3598       C  0.27310273  0.85518686  0.42412633    -0.09100
C3599       C  0.25701306  0.85240565  0.42470601     0.06200
C3600       C  0.24775113  0.86003900  0.43562388    -0.13500
Br3601     Br  0.23895681  0.89946023  0.43002410    -0.05600
Br3602     Br  0.22715673  0.87393218  0.50173854     0.00100
Br3603     Br  0.30156240  0.87015345  0.43395830     0.00500
Br3604     Br  0.22590652  0.85576021  0.43670818    -0.03900
Br3605     Br  0.21358406  0.91719063  0.45225435     0.00600
Br3606     Br  0.25241429  0.85627414  0.47881211    -0.03200
Br3607     Br  0.27910832  0.88903263  0.45882093    -0.04100
Br3608     Br  0.24740571  0.83787824  0.41079412    -0.00100
C3609       C  0.18580079  0.96085446  0.48509212     0.01300
C3610       C  0.19652564  0.96761920  0.47488912     0.04200
C3611       C  0.19524214  0.98331838  0.47093939    -0.11900
C3612       C  0.18357193  0.99245918  0.47757519     0.23500
C3613       C  0.17278077  0.98573658  0.48766271    -0.12500
C3614       C  0.17394009  0.97000583  0.49150438     0.04900
C3615       C  0.18332546  0.00933811  0.47474001     0.27300
C3616       C  0.19298269  0.01909579  0.48347110    -0.13200
C3617       C  0.19337576  0.03502643  0.48037145     0.05400
C3618       C  0.18372535  0.04129530  0.46889036    -0.09100
C3619       C  0.17397869  0.03155525  0.46024123     0.06200
C3620       C  0.17380705  0.01559432  0.46313733    -0.13500
Br3621     Br  0.15662731  0.99825905  0.49646168    -0.05600
Br3622     Br  0.21314502  0.95558326  0.46644196     0.00100
Br3623     Br  0.20717824  0.04824969  0.49174833     0.00500
Br3624     Br  0.16078392  0.00221825  0.45103841    -0.03900
Br3625     Br  0.16017976  0.96146880  0.50678990     0.00600
Br3626     Br  0.20948414  0.99246202  0.45646563    -0.03200
Br3627     Br  0.20563738  0.01052788  0.49968941    -0.04100
Br3628     Br  0.16158237  0.03993986  0.44372018    -0.00100
C3629       C  0.13973096  0.96934399  0.60631476     0.01300
C3630       C  0.13463111  0.96821776  0.59083118     0.04200
C3631       C  0.14445109  0.96203845  0.57941926    -0.11900
C3632       C  0.15947954  0.95712403  0.58327478     0.23500
C3633       C  0.16486592  0.95894312  0.59848911    -0.12500
C3634       C  0.15501814  0.96488209  0.61000074     0.04900
C3635       C  0.16907533  0.94904942  0.57149955     0.27300
C3636       C  0.16780452  0.93291861  0.56976721    -0.13200
C3637       C  0.17513996  0.92544638  0.55734734     0.05400
C3638       C  0.18328470  0.93411216  0.54630303    -0.09100
C3639       C  0.18538740  0.95005653  0.54854284     0.06200
C3640       C  0.17845443  0.95749670  0.56123347    -0.13500
Br3641     Br  0.18569791  0.95293827  0.60353657    -0.05600
Br3642     Br  0.11378477  0.97381807  0.58524912     0.00100
Br3643     Br  0.17352248  0.90339617  0.55496282     0.00500
Br3644     Br  0.18100133  0.97937886  0.56406044    -0.03900
Br3645     Br  0.16265601  0.96691597  0.63083386     0.00600
Br3646     Br  0.13712389  0.95952701  0.55851207    -0.03200
Br3647     Br  0.15495543  0.92127017  0.58369980    -0.04100
Br3648     Br  0.19695376  0.96177494  0.53358136    -0.00100
C3649       C  0.38404585  0.38383677  0.44198026     0.01300
C3650       C  0.37948855  0.37097334  0.43281317     0.04200
C3651       C  0.39056908  0.36018627  0.42762808    -0.11900
C3652       C  0.40625105  0.36211874  0.43132074     0.23500
C3653       C  0.41063027  0.37395061  0.44153469    -0.12500
C3654       C  0.39966177  0.38470169  0.44692885     0.04900
C3655       C  0.41842425  0.35323142  0.42296210     0.27300
C3656       C  0.42637296  0.34092957  0.43012524    -0.13200
C3657       C  0.43983345  0.33477827  0.42326713     0.05400
C3658       C  0.44536464  0.34096470  0.40927186    -0.09100
C3659       C  0.43651927  0.35214258  0.40141170     0.06200
C3660       C  0.42313617  0.35828128  0.40823024    -0.13500
Br3661     Br  0.43204039  0.37587202  0.44748792    -0.05600
Br3662     Br  0.35816174  0.36764417  0.42712757     0.00100
Br3663     Br  0.45132957  0.31876510  0.43359032     0.00500
Br3664     Br  0.41178640  0.37437257  0.39777997    -0.03900
Br3665     Br  0.40682803  0.40101093  0.46031436     0.00600
Br3666     Br  0.38452995  0.34285246  0.41500762    -0.03200
Br3667     Br  0.41927461  0.33319041  0.44971448    -0.04100
Br3668     Br  0.44295365  0.35924929  0.38130087    -0.00100
C3669       C  0.32118476  0.39829256  0.47467199     0.01300
C3670       C  0.30558164  0.40305722  0.47487672     0.04200
C3671       C  0.29489411  0.39562560  0.48464796    -0.11900
C3672       C  0.29965929  0.38333117  0.49416562     0.23500
C3673       C  0.31514534  0.37838142  0.49377757    -0.12500
C3674       C  0.32589846  0.38587314  0.48417561     0.04900
C3675       C  0.28862731  0.37600370  0.50513700     0.27300
C3676       C  0.28760166  0.38147816  0.52038507    -0.13200
C3677       C  0.27834565  0.37372982  0.53125731     0.05400
C3678       C  0.26971993  0.36059424  0.52690032    -0.09100
C3679       C  0.27008664  0.35564995  0.51136082     0.06200
C3680       C  0.27963062  0.36326531  0.50056199    -0.13500
Br3681     Br  0.32161784  0.36132946  0.50657597    -0.05600
Br3682     Br  0.29895605  0.42047505  0.46268127     0.00100
Br3683     Br  0.27729810  0.38145319  0.55209758     0.00500
Br3684     Br  0.28077328  0.35613486  0.47951625    -0.03900
Br3685     Br  0.34704989  0.37874103  0.48391444     0.00600
Br3686     Br  0.27375055  0.40251799  0.48544153    -0.03200
Br3687     Br  0.29898659  0.39966657  0.52631354    -0.04100
Br3688     Br  0.25831734  0.33791401  0.50496227    -0.00100
C3689       C  0.44939294  0.66559752  0.54427440     0.01300
C3690       C  0.43902758  0.65726797  0.55359180     0.04200
C3691       C  0.42597952  0.65024600  0.54696527    -0.11900
C3692       C  0.42332833  0.65147227  0.53095936     0.23500
C3693       C  0.43293593  0.66095812  0.52190352    -0.12500
C3694       C  0.44594703  0.66807257  0.52858030     0.04900
C3695       C  0.41123615  0.64179827  0.52357344     0.27300
C3696       C  0.41503855  0.62695906  0.51815141    -0.13200
C3697       C  0.40343792  0.61711898  0.51240962     0.05400
C3698       C  0.38787278  0.62209569  0.51208902    -0.09100
C3699       C  0.38425025  0.63725941  0.51693310     0.06200
C3700       C  0.39590500  0.64703915  0.52265246    -0.13500
Br3701     Br  0.42867717  0.66343291  0.50021332    -0.05600
Br3702     Br  0.44310274  0.65511404  0.57538180     0.00100
Br3703     Br  0.40898161  0.59642286  0.50628315     0.00500
Br3704     Br  0.39092482  0.66754010  0.52967850    -0.03900
Br3705     Br  0.45967964  0.68026083  0.51604403     0.00600
Br3706     Br  0.41216527  0.63825462  0.55962751    -0.03200
Br3707     Br  0.43617460  0.61991763  0.51929063    -0.04100
Br3708     Br  0.36334782  0.64488124  0.51561428    -0.00100
C3709       C  0.31745928  0.61194983  0.48387962     0.01300
C3710       C  0.31315192  0.60671501  0.46904342     0.04200
C3711       C  0.30227222  0.61497317  0.46021814    -0.11900
C3712       C  0.29521202  0.62830644  0.46625194     0.23500
C3713       C  0.29881054  0.63308940  0.48138402    -0.12500
C3714       C  0.30997467  0.62500818  0.49015663     0.04900
C3715       C  0.28439874  0.63736876  0.45631402     0.27300
C3716       C  0.29011615  0.64934055  0.44695094    -0.13200
C3717       C  0.28059164  0.65622844  0.43566243     0.05400
C3718       C  0.26518329  0.65116030  0.43357029    -0.09100
C3719       C  0.25925621  0.63970495  0.44360250     0.06200
C3720       C  0.26879630  0.63301217  0.45502606    -0.13500
Br3721     Br  0.28859100  0.65091319  0.48986873    -0.05600
Br3722     Br  0.32162664  0.58776081  0.46094065     0.00100
Br3723     Br  0.28880226  0.67285804  0.42336360     0.00500
Br3724     Br  0.26070192  0.61757965  0.46885321    -0.03900
Br3725     Br  0.31558309  0.63243597  0.51035789     0.00600
Br3726     Br  0.29722388  0.60821675  0.43959801    -0.03200
Br3727     Br  0.31118501  0.65611006  0.44955172    -0.04100
Br3728     Br  0.23852586  0.63202908  0.44100933    -0.00100
C3729       C  0.35077577  0.46548923  0.46623750     0.01300
C3730       C  0.34232101  0.47627025  0.45716774     0.04200
C3731       C  0.34238847  0.49205904  0.46097889    -0.11900
C3732       C  0.35027243  0.49726716  0.47415865     0.23500
C3733       C  0.35804008  0.48659628  0.48365989    -0.12500
C3734       C  0.35847962  0.47081134  0.47965312     0.04900
C3735       C  0.35033497  0.51402995  0.47795879     0.27300
C3736       C  0.36307792  0.52325392  0.47395850    -0.13200
C3737       C  0.36329081  0.53908950  0.47770942     0.05400
C3738       C  0.35041977  0.54597903  0.48516891    -0.09100
C3739       C  0.33715146  0.53678103  0.48803057     0.06200
C3740       C  0.33736753  0.52084096  0.48492446    -0.13500
Br3741     Br  0.36789251  0.49376439  0.50231945    -0.05600
Br3742     Br  0.33079785  0.47002577  0.43909353     0.00100
Br3743     Br  0.38163432  0.55075957  0.47280805     0.00500
Br3744     Br  0.31990250  0.50812516  0.49039322    -0.03900
Br3745     Br  0.36902204  0.45658026  0.49317392     0.00600
Br3746     Br  0.33188061  0.50683474  0.44794639    -0.03200
Br3747     Br  0.38031863  0.51397473  0.46332151    -0.04100
Br3748     Br  0.31806992  0.54578508  0.49532797    -0.00100
C3749       C  0.36736877  0.56821474  0.54568683     0.01300
C3750       C  0.36869188  0.57650544  0.55961291     0.04200
C3751       C  0.37588255  0.56965475  0.57251269    -0.11900
C3752       C  0.38221721  0.55470472  0.57139933     0.23500
C3753       C  0.38017377  0.54613601  0.55775812    -0.12500
C3754       C  0.37276879  0.55285111  0.54493605     0.04900
C3755       C  0.39283201  0.54896251  0.58365175     0.27300
C3756       C  0.40854002  0.55318313  0.58313346    -0.13200
C3757       C  0.41868750  0.54845915  0.59489734     0.05400
C3758       C  0.41314788  0.53973886  0.60743692    -0.09100
C3759       C  0.39750817  0.53527392  0.60787713     0.06200
C3760       C  0.38741336  0.53964854  0.59584300    -0.13500
Br3761     Br  0.38813837  0.52540491  0.55648474    -0.05600
Br3762     Br  0.36239612  0.59783688  0.56050231     0.00100
Br3763     Br  0.44006630  0.55471569  0.59428349     0.00500
Br3764     Br  0.36623019  0.53289472  0.59595027    -0.03900
Br3765     Br  0.37036643  0.54104052  0.52618264     0.00600
Br3766     Br  0.37776836  0.58097210  0.59156205    -0.03200
Br3767     Br  0.41609050  0.56577230  0.56639005    -0.04100
Br3768     Br  0.39003517  0.52306986  0.62490780    -0.00100
C3769       C  0.19359945  0.68062554  0.38919125     0.01300
C3770       C  0.18737348  0.69433455  0.39534910     0.04200
C3771       C  0.17411604  0.70099345  0.38857496    -0.11900
C3772       C  0.16700775  0.69385060  0.37578925     0.23500
C3773       C  0.17244486  0.67946427  0.37058892    -0.12500
C3774       C  0.18558937  0.67280727  0.37737337     0.04900
C3775       C  0.15456006  0.70176140  0.36696224     0.27300
C3776       C  0.13898075  0.69875359  0.37024731    -0.13200
C3777       C  0.12727661  0.70464289  0.36059326     0.05400
C3778       C  0.13110448  0.71290687  0.34695201    -0.09100
C3779       C  0.14684148  0.71650116  0.34413755     0.06200
C3780       C  0.15843257  0.71105872  0.35422343    -0.13500
Br3781     Br  0.16242721  0.66937347  0.35343352    -0.05600
Br3782     Br  0.19757002  0.70455115  0.41227701     0.00100
Br3783     Br  0.10604060  0.70141407  0.36658896     0.00500
Br3784     Br  0.17991987  0.71538694  0.35011888    -0.03900
Br3785     Br  0.19268006  0.65289392  0.37041169     0.00600
Br3786     Br  0.16623355  0.72036155  0.39608480    -0.03200
Br3787     Br  0.13381606  0.68564311  0.38749453    -0.04100
Br3788     Br  0.15314443  0.72781799  0.32600903    -0.00100
C3789       C  0.19283926  0.81856326  0.06644743     0.01300
C3790       C  0.18144154  0.82741931  0.07387138     0.04200
C3791       C  0.16932855  0.82006694  0.08177853    -0.11900
C3792       C  0.16892886  0.80383896  0.08275620     0.23500
C3793       C  0.17985348  0.79498192  0.07460884    -0.12500
C3794       C  0.19165885  0.80236439  0.06625553     0.04900
C3795       C  0.15783993  0.79623437  0.09337508     0.27300
C3796       C  0.16143033  0.79500206  0.10919084    -0.13200
C3797       C  0.15055548  0.78889314  0.11958226     0.05400
C3798       C  0.13603518  0.78379499  0.11414995    -0.09100
C3799       C  0.13281129  0.78431125  0.09816772     0.06200
C3800       C  0.14360361  0.79072241  0.08785406    -0.13500
Br3801     Br  0.17922115  0.77278383  0.07580295    -0.05600
Br3802     Br  0.18332313  0.84957595  0.07446586     0.00100
Br3803     Br  0.15526773  0.78886931  0.14138137     0.00500
Br3804     Br  0.13870378  0.79266494  0.06623071    -0.03900
Br3805     Br  0.20661499  0.79036648  0.05497196     0.00600
Br3806     Br  0.15375393  0.83217485  0.09205971    -0.03200
Br3807     Br  0.18106967  0.80242582  0.11668698    -0.04100
Br3808     Br  0.11374805  0.77592940  0.09028132    -0.00100
C3809       C  0.09665611  0.75758839  0.18961070     0.01300
C3810       C  0.10842803  0.74899952  0.19708519     0.04200
C3811       C  0.10661785  0.74457411  0.21261889    -0.11900
C3812       C  0.09333099  0.74894464  0.22084609     0.23500
C3813       C  0.08126473  0.75668470  0.21326172    -0.12500
C3814       C  0.08260776  0.76039011  0.19754910     0.04900
C3815       C  0.09199201  0.74518793  0.23747430     0.27300
C3816       C  0.08364812  0.73212948  0.24217319    -0.13200
C3817       C  0.08273084  0.72826625  0.25792455     0.05400
C3818       C  0.09118646  0.73690512  0.26903172    -0.09100
C3819       C  0.09862345  0.75065901  0.26426363     0.06200
C3820       C  0.09905619  0.75470851  0.24853533    -0.13500
Br3821     Br  0.06302017  0.76260493  0.22459437    -0.05600
Br3822     Br  0.12722723  0.74325295  0.18659679     0.00100
Br3823     Br  0.06954321  0.71123296  0.26365219     0.00500
Br3824     Br  0.10964202  0.77315987  0.24191602    -0.03900
Br3825     Br  0.06453153  0.76818854  0.18693564     0.00600
Br3826     Br  0.12243567  0.73269825  0.22292024    -0.03200
Br3827     Br  0.07409501  0.71914862  0.22674915    -0.04100
Br3828     Br  0.10732388  0.76474116  0.27915953    -0.00100
C3829       C  0.11321904  0.82171581  0.16274547     0.01300
C3830       C  0.11986960  0.83228104  0.15233352     0.04200
C3831       C  0.12678232  0.84591553  0.15786761    -0.11900
C3832       C  0.12749596  0.84881596  0.17387178     0.23500
C3833       C  0.12051162  0.83842488  0.18424244    -0.12500
C3834       C  0.11322155  0.82501011  0.17867209     0.04900
C3835       C  0.13716216  0.86172478  0.17981614     0.27300
C3836       C  0.15313875  0.85943960  0.18173828    -0.13200
C3837       C  0.16263637  0.87165181  0.18660093     0.05400
C3838       C  0.15614451  0.88611073  0.19038533    -0.09100
C3839       C  0.14011808  0.88846417  0.18832550     0.06200
C3840       C  0.13065483  0.87625815  0.18311405    -0.13500
Br3841     Br  0.12196591  0.84205615  0.20614202    -0.05600
Br3842     Br  0.12094067  0.82728712  0.13066714     0.00100
Br3843     Br  0.18477113  0.86893199  0.18629969     0.00500
Br3844     Br  0.10875892  0.87930642  0.18050795    -0.03900
Br3845     Br  0.10355592  0.81086169  0.19287167     0.00600
Br3846     Br  0.13622522  0.86018591  0.14364413    -0.03200
Br3847     Br  0.16201777  0.83943137  0.17765186    -0.04100
Br3848     Br  0.13104381  0.90833293  0.19257028    -0.00100
C3849       C  0.06618016  0.75345842  0.12782373     0.01300
C3850       C  0.06383632  0.73806674  0.13277080     0.04200
C3851       C  0.05353632  0.72837840  0.12473996    -0.11900
C3852       C  0.04548682  0.73398736  0.11177824     0.23500
C3853       C  0.04675223  0.74966919  0.10770506    -0.12500
C3854       C  0.05699848  0.75941983  0.11573860     0.04900
C3855       C  0.03638501  0.72322363  0.10193631     0.27300
C3856       C  0.04354135  0.71584292  0.08936434    -0.13200
C3857       C  0.03512584  0.70553121  0.08002958     0.05400
C3858       C  0.01942006  0.70238294  0.08327431    -0.09100
C3859       C  0.01219892  0.71008914  0.09573722     0.06200
C3860       C  0.02072377  0.72033090  0.10509870    -0.13500
Br3861     Br  0.03465818  0.75762625  0.09080234    -0.05600
Br3862     Br  0.07419124  0.73032080  0.15095704     0.00100
Br3863     Br  0.04515456  0.69636453  0.06235992     0.00500
Br3864     Br  0.01121261  0.73006090  0.12269585    -0.03900
Br3865     Br  0.05892828  0.78069114  0.10952155     0.00600
Br3866     Br  0.05046502  0.70732521  0.13131804    -0.03200
Br3867     Br  0.06508571  0.71971733  0.08516759    -0.04100
Br3868     Br  0.99083648  0.70623182  0.10065491    -0.00100
C3869       C  0.06106235  0.64050060  0.85945879     0.01300
C3870       C  0.06899820  0.62762560  0.86553256     0.04200
C3871       C  0.07369708  0.61558025  0.85574561    -0.11900
C3872       C  0.07098554  0.61652915  0.83974127     0.23500
C3873       C  0.06291768  0.62928106  0.83364836    -0.12500
C3874       C  0.05800785  0.64128372  0.84348105     0.04900
C3875       C  0.07679175  0.60406408  0.82947923     0.27300
C3876       C  0.09243805  0.60384154  0.82494035    -0.13200
C3877       C  0.09859278  0.59077553  0.81747598     0.05400
C3878       C  0.08900467  0.57810161  0.81415975    -0.09100
C3879       C  0.07308055  0.57895023  0.81742950     0.06200
C3880       C  0.06706338  0.59170699  0.82543388    -0.13500
Br3881     Br  0.05851655  0.63013296  0.81185366    -0.05600
Br3882     Br  0.07466043  0.62699190  0.88709149     0.00100
Br3883     Br  0.12040144  0.58958964  0.81320683     0.00500
Br3884     Br  0.04581201  0.59167626  0.83203789    -0.03900
Br3885     Br  0.04686858  0.65863892  0.83511364     0.00600
Br3886     Br  0.08380529  0.59762758  0.86426065    -0.03200
Br3887     Br  0.10564095  0.62101446  0.82995546    -0.04100
Br3888     Br  0.05954049  0.56244793  0.81107547    -0.00100
C3889       C  0.03628222  0.67358452  0.93531381     0.01300
C3890       C  0.03490854  0.65907384  0.94269158     0.04200
C3891       C  0.03019867  0.65820350  0.95822442    -0.11900
C3892       C  0.02785043  0.67177376  0.96682372     0.23500
C3893       C  0.02937407  0.68624606  0.95958086    -0.12500
C3894       C  0.03311544  0.68715435  0.94379679     0.04900
C3895       C  0.02320471  0.67086262  0.98333902     0.27300
C3896       C  0.00771620  0.67343364  0.98744750    -0.13200
C3897       C  0.00330108  0.67336245  0.00306029     0.05400
C3898       C  0.01425361  0.66999620  0.01474628    -0.09100
C3899       C  0.02970926  0.66692605  0.01055209     0.06200
C3900       C  0.03421307  0.66765550  0.99491341    -0.13500
Br3901     Br  0.02625862  0.70487173  0.97137902    -0.05600
Br3902     Br  0.04048116  0.64028279  0.93210862     0.00100
Br3903     Br  0.98197233  0.67748914  0.00810143     0.00500
Br3904     Br  0.05553926  0.66461393  0.98926060    -0.03900
Br3905     Br  0.03292520  0.70704959  0.93375888     0.00600
Br3906     Br  0.02662675  0.63839424  0.96774160    -0.03200
Br3907     Br  0.99247984  0.67684510  0.97150170    -0.04100
Br3908     Br  0.04494405  0.66247554  0.02617714    -0.00100
C3909       C  0.09889362  0.66972962  0.90512324     0.01300
C3910       C  0.10187433  0.66812020  0.92103572     0.04200
C3911       C  0.11539157  0.66070342  0.92609698    -0.11900
C3912       C  0.12588717  0.65474103  0.91524236     0.23500
C3913       C  0.12344553  0.65727375  0.89935886    -0.12500
C3914       C  0.11004341  0.66497014  0.89430405     0.04900
C3915       C  0.13852118  0.64442333  0.92042513     0.27300
C3916       C  0.15343923  0.65027079  0.92310109    -0.13200
C3917       C  0.16539870  0.64027015  0.92769198     0.05400
C3918       C  0.16230199  0.62449824  0.93016447    -0.09100
C3919       C  0.14743600  0.61860166  0.92713428     0.06200
C3920       C  0.13556705  0.62855832  0.92232615    -0.13500
Br3921     Br  0.13776504  0.64885970  0.88455100    -0.05600
Br3922     Br  0.08699212  0.67547937  0.93587095     0.00100
Br3923     Br  0.18600167  0.64819337  0.93044112     0.00500
Br3924     Br  0.11525211  0.62045555  0.91803961    -0.03900
Br3925     Br  0.10626844  0.66762569  0.87253775     0.00600
Br3926     Br  0.11899329  0.65759354  0.94784691    -0.03200
Br3927     Br  0.15738314  0.67198880  0.92052706    -0.04100
Br3928     Br  0.14363716  0.59666276  0.92812843    -0.00100
C3929       C  0.90202676  0.71981863  0.61612071     0.01300
C3930       C  0.89818552  0.72788614  0.60252834     0.04200
C3931       C  0.88561870  0.72306087  0.59338053    -0.11900
C3932       C  0.87691240  0.71006643  0.59776598     0.23500
C3933       C  0.88060479  0.70214644  0.61148314    -0.12500
C3934       C  0.89301701  0.70709565  0.62068760     0.04900
C3935       C  0.86340394  0.70497697  0.58848218     0.27300
C3936       C  0.84868001  0.71075050  0.59198940    -0.13200
C3937       C  0.83547155  0.70419356  0.58517458     0.05400
C3938       C  0.83691897  0.69190914  0.57440238    -0.09100
C3939       C  0.85189850  0.68696880  0.57006660     0.06200
C3940       C  0.86505085  0.69341628  0.57721318    -0.13500
Br3941     Br  0.86865910  0.68438880  0.61758312    -0.05600
Br3942     Br  0.90990361  0.74563651  0.59652818     0.00100
Br3943     Br  0.81554015  0.71247776  0.59086704     0.00500
Br3944     Br  0.88545592  0.68611881  0.57207681    -0.03900
Br3945     Br  0.89760991  0.69646070  0.63968289     0.00600
Br3946     Br  0.88026797  0.73417168  0.57484411    -0.03200
Br3947     Br  0.84675424  0.72755531  0.60650554    -0.04100
Br3948     Br  0.85473568  0.67068964  0.55517859    -0.00100
C3949       C  0.93467202  0.68065913  0.65825713     0.01300
C3950       C  0.93359750  0.67735356  0.67414850     0.04200
C3951       C  0.92562054  0.66416795  0.67924782    -0.11900
C3952       C  0.91836703  0.65437782  0.66850046     0.23500
C3953       C  0.92067860  0.65686526  0.65257179    -0.12500
C3954       C  0.92912060  0.66982172  0.64745712     0.04900
C3955       C  0.90736796  0.64234986  0.67402998     0.27300
C3956       C  0.91243625  0.62721449  0.67706074    -0.13200
C3957       C  0.90205468  0.61610330  0.68288162     0.05400
C3958       C  0.88643024  0.62001014  0.68554549    -0.09100
C3959       C  0.88139354  0.63523016  0.68249913     0.06200
C3960       C  0.89184113  0.64633115  0.67684429    -0.13500
Br3961     Br  0.91138209  0.64309487  0.63779872    -0.05600
Br3962     Br  0.94287003  0.69115145  0.68893759     0.00100
Br3963     Br  0.90951620  0.59572892  0.68787763     0.00500
Br3964     Br  0.88485691  0.66708191  0.67273631    -0.03900
Br3965     Br  0.93196956  0.67334011  0.62566001     0.00600
Br3966     Br  0.92392418  0.65986595  0.70100458    -0.03200
Br3967     Br  0.93366970  0.62181493  0.67321148    -0.04100
Br3968     Br  0.85996399  0.64083265  0.68508937    -0.00100
C3969       C  0.02611459  0.70993891  0.87262165     0.01300
C3970       C  0.03066726  0.71904364  0.85990822     0.04200
C3971       C  0.02035862  0.72990622  0.85348928    -0.11900
C3972       C  0.00526318  0.73144757  0.85938758     0.23500
C3973       C  0.00078362  0.72253398  0.87224125    -0.12500
C3974       C  0.01125964  0.71206585  0.87902380     0.04900
C3975       C  0.99388721  0.74166984  0.85137378     0.27300
C3976       C  0.99050838  0.75653949  0.85706074    -0.13200
C3977       C  0.98002105  0.76622319  0.84911216     0.05400
C3978       C  0.97310555  0.76121312  0.83520192    -0.09100
C3979       C  0.97667517  0.74635820  0.82948919     0.06200
C3980       C  0.98678770  0.73658647  0.83765822    -0.13500
Br3981     Br  0.98007289  0.72424021  0.88020927    -0.05600
Br3982     Br  0.05055542  0.71588290  0.85044217     0.00100
Br3983     Br  0.97461677  0.78598090  0.85776696     0.00500
Br3984     Br  0.99102199  0.71611025  0.83000975    -0.03900
Br3985     Br  0.00537861  0.70107283  0.89750744     0.00600
Br3986     Br  0.02668864  0.74243461  0.83621773    -0.03200
Br3987     Br  0.00039798  0.76359902  0.87571515    -0.04100
Br3988     Br  0.96851634  0.73956654  0.80987633    -0.00100
C3989       C  0.94843435  0.76887301  0.76607788     0.01300
C3990       C  0.95677682  0.77773478  0.75508738     0.04200
C3991       C  0.95753138  0.77294105  0.73956905    -0.11900
C3992       C  0.94991945  0.75944283  0.73482959     0.23500
C3993       C  0.94209600  0.75032181  0.74572259    -0.12500
C3994       C  0.94135879  0.75494561  0.76127761     0.04900
C3995       C  0.94951029  0.75511654  0.71824355     0.27300
C3996       C  0.93786656  0.76106798  0.70864764    -0.13200
C3997       C  0.93677892  0.75635862  0.69312368     0.05400
C3998       C  0.94711074  0.74508637  0.68713808    -0.09100
C3999       C  0.95920125  0.73956713  0.69688186     0.06200
C4000       C  0.96040531  0.74475001  0.71225599    -0.13500
Br4001     Br  0.93219580  0.73150380  0.73910213    -0.05600
Br4002     Br  0.96645227  0.79705509  0.76057884     0.00100
Br4003     Br  0.92126924  0.76614241  0.68038684     0.00500
Br4004     Br  0.97690552  0.73755090  0.72546111    -0.03900
Br4005     Br  0.93090926  0.74173026  0.77584944     0.00600
Br4006     Br  0.96870619  0.78498815  0.72451362    -0.03200
Br4007     Br  0.92322237  0.77562055  0.71709137    -0.04100
Br4008     Br  0.97416645  0.72449328  0.69002826    -0.00100
C4009       C  0.93114436  0.82980029  0.79159567     0.01300
C4010       C  0.93099974  0.84313664  0.80094160     0.04200
C4011       C  0.92321426  0.85652853  0.79588830    -0.11900
C4012       C  0.91580526  0.85673981  0.78140009     0.23500
C4013       C  0.91687851  0.84382674  0.77163708    -0.12500
C4014       C  0.92439753  0.83037067  0.77672692     0.04900
C4015       C  0.90537921  0.86967752  0.77704507     0.27300
C4016       C  0.88972106  0.86908530  0.78139425    -0.13200
C4017       C  0.87939192  0.88054608  0.77631546     0.05400
C4018       C  0.88458454  0.89250364  0.76657763    -0.09100
C4019       C  0.90025798  0.89318149  0.76232985     0.06200
C4020       C  0.91069955  0.88193056  0.76777284    -0.13500
Br4021     Br  0.90711797  0.84431351  0.75159823    -0.05600
Br4022     Br  0.94000705  0.84267016  0.82129909     0.00100
Br4023     Br  0.85823264  0.88011854  0.78321302     0.00500
Br4024     Br  0.93231003  0.88334347  0.76278127    -0.03900
Br4025     Br  0.92493995  0.81255648  0.76333255     0.00600
Br4026     Br  0.92165781  0.87425495  0.80920743    -0.03200
Br4027     Br  0.88248183  0.85250785  0.79440409    -0.04100
Br4028     Br  0.90718911  0.90913484  0.74848267    -0.00100
C4029       C  0.95056424  0.93065918  0.31597248     0.01300
C4030       C  0.94166644  0.92304739  0.32728337     0.04200
C4031       C  0.94721604  0.90957613  0.33450145    -0.11900
C4032       C  0.96185680  0.90360152  0.33065610     0.23500
C4033       C  0.97067448  0.91099651  0.31910949    -0.12500
C4034       C  0.96500032  0.92443431  0.31171903     0.04900
C4035       C  0.96834854  0.89045888  0.33984815     0.27300
C4036       C  0.97447089  0.89327170  0.35465583    -0.13200
C4037       C  0.97901502  0.88092323  0.36425166     0.05400
C4038       C  0.97776990  0.86549094  0.35903817    -0.09100
C4039       C  0.97203104  0.86271755  0.34397016     0.06200
C4040       C  0.96730512  0.87514339  0.33447661    -0.13500
Br4041     Br  0.99100540  0.90334802  0.31431803    -0.05600
Br4042     Br  0.92197440  0.93145299  0.33337651     0.00100
Br4043     Br  0.98552947  0.88542329  0.38509773     0.00500
Br4044     Br  0.95891416  0.87121279  0.31423574    -0.03900
Br4045     Br  0.97754080  0.93507414  0.29676039     0.00600
Br4046     Br  0.93516498  0.89982991  0.35049954    -0.03200
Br4047     Br  0.97595248  0.91422373  0.36205369    -0.04100
Br4048     Br  0.97076396  0.84193462  0.33606903    -0.00100
C4049       C  0.01124527  0.79538900  0.37169378     0.01300
C4050       C  0.00508036  0.78285066  0.36318824     0.04200
C4051       C  0.01501076  0.77173378  0.35649705    -0.11900
C4052       C  0.03116044  0.77325364  0.35772080     0.23500
C4053       C  0.03733349  0.78560193  0.36626887    -0.12500
C4054       C  0.02748909  0.79622335  0.37370117     0.04900
C4055       C  0.04172302  0.76225276  0.34957267     0.27300
C4056       C  0.04713182  0.74878868  0.35699272    -0.13200
C4057       C  0.05781886  0.73896047  0.34952604     0.05400
C4058       C  0.06338354  0.74266582  0.33466907    -0.09100
C4059       C  0.05759074  0.75591268  0.32710385     0.06200
C4060       C  0.04671118  0.76553693  0.33445329    -0.13500
Br4061     Br  0.05943282  0.78824239  0.36735132    -0.05600
Br4062     Br  0.98314820  0.78103179  0.35990466     0.00100
Br4063     Br  0.06538171  0.72084286  0.35997613     0.00500
Br4064     Br  0.03850479  0.78330254  0.32382884    -0.03900
Br4065     Br  0.03654453  0.81113587  0.38759791     0.00600
Br4066     Br  0.00663695  0.75448598  0.34522322    -0.03200
Br4067     Br  0.03997807  0.74399291  0.37749483    -0.04100
Br4068     Br  0.06422376  0.76070394  0.30639142    -0.00100
C4069       C  0.94226841  0.84062186  0.40959104     0.01300
C4070       C  0.93987551  0.84063783  0.42568459     0.04200
C4071       C  0.92729288  0.84873242  0.43204297    -0.11900
C4072       C  0.91739976  0.85730448  0.42236844     0.23500
C4073       C  0.91956841  0.85692645  0.40623969    -0.12500
C4074       C  0.93181142  0.84837841  0.39985990     0.04900
C4075       C  0.90526492  0.86744806  0.42906786     0.27300
C4076       C  0.88981315  0.86249951  0.42956740    -0.13200
C4077       C  0.87804726  0.87278074  0.43412942     0.05400
C4078       C  0.88175583  0.88802238  0.43868436    -0.09100
C4079       C  0.89740570  0.89271184  0.43876051     0.06200
C4080       C  0.90906461  0.88246405  0.43394729    -0.13500
Br4081     Br  0.90650772  0.86915976  0.39297305    -0.05600
Br4082     Br  0.95432790  0.83015775  0.43902953     0.00100
Br4083     Br  0.85690947  0.86578761  0.43398779     0.00500
Br4084     Br  0.93029655  0.88919418  0.43338749    -0.03900
Br4085     Br  0.93516327  0.84849296  0.37785199     0.00600
Br4086     Br  0.92399933  0.84876685  0.45404070    -0.03200
Br4087     Br  0.88492303  0.84157864  0.42377073    -0.04100
Br4088     Br  0.90301421  0.91365981  0.44390824    -0.00100
C4089       C  0.05619338  0.87430296  0.58672581     0.01300
C4090       C  0.05509000  0.87352172  0.60298425     0.04200
C4091       C  0.06018431  0.88589822  0.61221225    -0.11900
C4092       C  0.06681123  0.89899780  0.60532265     0.23500
C4093       C  0.06796507  0.89986851  0.58913383    -0.12500
C4094       C  0.06248817  0.88769500  0.57984562     0.04900
C4095       C  0.07316297  0.91163487  0.61505941     0.27300
C4096       C  0.06378747  0.92421833  0.61927145    -0.13200
C4097       C  0.07026804  0.93691478  0.62706668     0.05400
C4098       C  0.08615730  0.93706458  0.63075303    -0.09100
C4099       C  0.09529065  0.92402623  0.62741335     0.06200
C4100       C  0.08882970  0.91140417  0.61946508    -0.13500
Br4101     Br  0.07782581  0.91751121  0.57979410    -0.05600
Br4102     Br  0.04649259  0.85564406  0.61282535     0.00100
Br4103     Br  0.05737564  0.95422893  0.63257173     0.00500
Br4104     Br  0.10162923  0.89416555  0.61362837    -0.03900
Br4105     Br  0.06477785  0.88905993  0.55772789     0.00600
Br4106     Br  0.05849673  0.88486218  0.63439360    -0.03200
Br4107     Br  0.04222860  0.92431662  0.61366987    -0.04100
Br4108     Br  0.11696164  0.92396102  0.63249021    -0.00100
C4109       C  0.97209848  0.75184893  0.61847564     0.01300
C4110       C  0.96665774  0.76220491  0.60706087     0.04200
C4111       C  0.97692552  0.77202539  0.59922525    -0.11900
C4112       C  0.99284994  0.77127231  0.60223987     0.23500
C4113       C  0.99844671  0.76082939  0.61339153    -0.12500
C4114       C  0.98810806  0.75138371  0.62172965     0.04900
C4115       C  0.00344951  0.78245082  0.59462928     0.27300
C4116       C  0.00952423  0.77946593  0.57983379    -0.13200
C4117       C  0.01909698  0.79044170  0.57254927     0.05400
C4118       C  0.02246184  0.80454363  0.57994001    -0.09100
C4119       C  0.01600742  0.80762871  0.59454199     0.06200
C4120       C  0.00671900  0.79656954  0.60193767    -0.13500
Br4121     Br  0.02030170  0.75999664  0.61756377    -0.05600
Br4122     Br  0.94514741  0.76304710  0.60171584     0.00100
Br4123     Br  0.02665806  0.78666985  0.55196357     0.00500
Br4124     Br  0.99812622  0.80084341  0.62203325    -0.03900
Br4125     Br  0.99585511  0.73914839  0.63866022     0.00600
Br4126     Br  0.96911582  0.78710138  0.58475655    -0.03200
Br4127     Br  0.00427732  0.76055295  0.56940334    -0.04100
Br4128     Br  0.01980938  0.82701186  0.60453295    -0.00100
C4129       C  0.03103734  0.83438721  0.51310259     0.01300
C4130       C  0.01693791  0.82711677  0.50955000     0.04200
C4131       C  0.01197212  0.82604546  0.49406728    -0.11900
C4132       C  0.02123354  0.83200301  0.48207177     0.23500
C4133       C  0.03544400  0.83903665  0.48565331    -0.12500
C4134       C  0.04022465  0.84040386  0.50112375     0.04900
C4135       C  0.01564797  0.83174958  0.46579677     0.27300
C4136       C  0.01828835  0.81881074  0.45632243    -0.13200
C4137       C  0.01265314  0.81856173  0.44105181     0.05400
C4138       C  0.00479438  0.83148807  0.43496977    -0.09100
C4139       C  0.00233118  0.84452764  0.44443638     0.06200
C4140       C  0.00775754  0.84463190  0.45977422    -0.13500
Br4141     Br  0.04830762  0.84684229  0.46927591    -0.05600
Br4142     Br  0.00442524  0.81878722  0.52593496     0.00100
Br4143     Br  0.01601099  0.80056075  0.42838396     0.00500
Br4144     Br  0.00444935  0.86245480  0.47269495    -0.03900
Br4145     Br  0.05925052  0.85085153  0.50597026     0.00600
Br4146     Br  0.99239767  0.81663755  0.48922144    -0.03200
Br4147     Br  0.03002248  0.80161337  0.46417398    -0.04100
Br4148     Br  0.99056419  0.86189087  0.43690720    -0.00100
C4149       C  0.15567870  0.88303537  0.50944376     0.01300
C4150       C  0.15951926  0.86794515  0.51438118     0.04200
C4151       C  0.14805575  0.85816113  0.52049467    -0.11900
C4152       C  0.13254098  0.86294786  0.52075036     0.23500
C4153       C  0.12846777  0.87739068  0.51450668    -0.12500
C4154       C  0.13999646  0.88765791  0.50944727     0.04900
C4155       C  0.12064468  0.85373753  0.52901964     0.27300
C4156       C  0.11179518  0.84255287  0.52119155    -0.13200
C4157       C  0.09884665  0.83592033  0.52845408     0.05400
C4158       C  0.09450014  0.84078368  0.54331090    -0.09100
C4159       C  0.10412718  0.85085585  0.55163088     0.06200
C4160       C  0.11722073  0.85728950  0.54452492    -0.13500
Br4161     Br  0.10698422  0.88328648  0.51351062    -0.05600
Br4162     Br  0.18041763  0.86042626  0.51259409     0.00100
Br4163     Br  0.08658735  0.82062282  0.51797221     0.00500
Br4164     Br  0.12987520  0.87185914  0.55561818    -0.03900
Br4165     Br  0.13415520  0.90857696  0.50441251     0.00600
Br4166     Br  0.15362152  0.83849200  0.52926511    -0.03200
Br4167     Br  0.11671307  0.83723053  0.50019592    -0.04100
Br4168     Br  0.09882734  0.85641143  0.57250815    -0.00100
C4169       C  0.15914167  0.61487981  0.26486590     0.01300
C4170       C  0.16453551  0.63023968  0.26598922     0.04200
C4171       C  0.15468542  0.64200587  0.27141577    -0.11900
C4172       C  0.13920437  0.63873199  0.27519138     0.23500
C4173       C  0.13344475  0.62372582  0.27286215    -0.12500
C4174       C  0.14338891  0.61179644  0.26792938     0.04900
C4175       C  0.12912097  0.65117699  0.28158845     0.27300
C4176       C  0.12723309  0.65274882  0.29769229    -0.13200
C4177       C  0.11934363  0.66562600  0.30381189     0.05400
C4178       C  0.11311194  0.67692140  0.29386419    -0.09100
C4179       C  0.11464872  0.67509357  0.27775713     0.06200
C4180       C  0.12247695  0.66220972  0.27164884    -0.13500
Br4181     Br  0.11183540  0.61966356  0.27628177    -0.05600
Br4182     Br  0.18557107  0.63534483  0.26075294     0.00100
Br4183     Br  0.11842075  0.66859197  0.32585585     0.00500
Br4184     Br  0.12465536  0.65986621  0.24962495    -0.03900
Br4185     Br  0.13513625  0.59136825  0.26474609     0.00600
Br4186     Br  0.16248154  0.66268721  0.27409051    -0.03200
Br4187     Br  0.13612878  0.63759146  0.31137276    -0.04100
Br4188     Br  0.10648253  0.69053954  0.26400650    -0.00100
C4189       C  0.20752781  0.58523675  0.30375039     0.01300
C4190       C  0.22341294  0.58751772  0.30643632     0.04200
C4191       C  0.22843042  0.59494968  0.31994259    -0.11900
C4192       C  0.21758435  0.60007386  0.33087569     0.23500
C4193       C  0.20177582  0.59682066  0.32874165    -0.12500
C4194       C  0.19675527  0.58931199  0.31522294     0.04900
C4195       C  0.22252658  0.61108670  0.34302056     0.27300
C4196       C  0.22689920  0.60595407  0.35781321    -0.13200
C4197       C  0.23152312  0.61669815  0.36913604     0.05400
C4198       C  0.23221464  0.63258187  0.36551443    -0.09100
C4199       C  0.22799443  0.63761013  0.35055726     0.06200
C4200       C  0.22316136  0.62689689  0.33941126    -0.13500
Br4201     Br  0.18689161  0.60428233  0.34348875    -0.05600
Br4202     Br  0.23828564  0.58125421  0.29117565     0.00100
Br4203     Br  0.23727890  0.60954315  0.38942381     0.00500
Br4204     Br  0.21734233  0.63383532  0.31900806    -0.03900
Br4205     Br  0.17497708  0.58638172  0.31156158     0.00600
Br4206     Br  0.25000436  0.59976111  0.32269417    -0.03200
Br4207     Br  0.22683616  0.58418001  0.36232393    -0.04100
Br4208     Br  0.22764036  0.65929642  0.34537421    -0.00100
C4209       C  0.43266558  0.68095517  0.15728575     0.01300
C4210       C  0.43595972  0.67783302  0.17291135     0.04200
C4211       C  0.42918606  0.66499709  0.18027829    -0.11900
C4212       C  0.41896997  0.65535010  0.17208327     0.23500
C4213       C  0.41608985  0.65821002  0.15631499    -0.12500
C4214       C  0.42286090  0.67100923  0.14896930     0.04900
C4215       C  0.40991718  0.64324392  0.18025830     0.27300
C4216       C  0.41538295  0.62797364  0.18119512    -0.13200
C4217       C  0.40579783  0.61622716  0.18708542     0.05400
C4218       C  0.39054247  0.61963404  0.19175819    -0.09100
C4219       C  0.38545573  0.63514157  0.19169981     0.06200
C4220       C  0.39519275  0.64688360  0.18610515    -0.13500
Br4221     Br  0.40204475  0.64511103  0.14504653    -0.05600
Br4222     Br  0.44850128  0.69202149  0.18457870     0.00100
Br4223     Br  0.41366668  0.59545775  0.18885665     0.00500
Br4224     Br  0.38811454  0.66800019  0.18566302    -0.03900
Br4225     Br  0.41801600  0.67549480  0.12767956     0.00600
Br4226     Br  0.43303184  0.66113555  0.20184376    -0.03200
Br4227     Br  0.43579133  0.62311239  0.17382518    -0.04100
Br4228     Br  0.36465894  0.64038760  0.19775937    -0.00100
C4229       C  0.31348629  0.57946609  0.21423877     0.01300
C4230       C  0.30286855  0.56946681  0.20661034     0.04200
C4231       C  0.28749222  0.56832349  0.21178393    -0.11900
C4232       C  0.28237126  0.57726555  0.22427826     0.23500
C4233       C  0.29281040  0.58686209  0.23213217    -0.12500
C4234       C  0.30835160  0.58773438  0.22742439     0.04900
C4235       C  0.26593807  0.57658515  0.22920751     0.27300
C4236       C  0.25492286  0.58622373  0.22218423    -0.13200
C4237       C  0.23940281  0.58589259  0.22705465     0.05400
C4238       C  0.23480624  0.57615010  0.23938875    -0.09100
C4239       C  0.24592736  0.56597694  0.24595303     0.06200
C4240       C  0.26139387  0.56634101  0.24091681    -0.13500
Br4241     Br  0.28556110  0.59896579  0.24936292    -0.05600
Br4242     Br  0.30854817  0.55735450  0.18871626     0.00100
Br4243     Br  0.22451801  0.59818983  0.21589119     0.00500
Br4244     Br  0.27668483  0.55304693  0.25027903    -0.03900
Br4245     Br  0.32238998  0.59976479  0.23989426     0.00600
Br4246     Br  0.27316310  0.55452561  0.20170555    -0.03200
Br4247     Br  0.26135734  0.60012055  0.20599709    -0.04100
Br4248     Br  0.24063906  0.55148943  0.26205947    -0.00100
C4249       C  0.33676128  0.60233350  0.15541034     0.01300
C4250       C  0.34566063  0.60888736  0.14348458     0.04200
C4251       C  0.33833098  0.61646278  0.13107088    -0.11900
C4252       C  0.32209171  0.61753517  0.13054548     0.23500
C4253       C  0.31321323  0.61107018  0.14249868    -0.12500
C4254       C  0.32052802  0.60362076  0.15494975     0.04900
C4255       C  0.31447264  0.62650613  0.11803990     0.27300
C4256       C  0.31145697  0.64232120  0.12016861    -0.13200
C4257       C  0.30545777  0.65122748  0.10796924     0.05400
C4258       C  0.30277852  0.64439571  0.09340284    -0.09100
C4259       C  0.30474814  0.62832734  0.09165987     0.06200
C4260       C  0.31066365  0.61942099  0.10392572    -0.13500
Br4261     Br  0.29104285  0.61314355  0.14214689    -0.05600
Br4262     Br  0.36787369  0.60889212  0.14496137     0.00100
Br4263     Br  0.30203192  0.67300325  0.11114460     0.00500
Br4264     Br  0.31411899  0.59761088  0.10129445    -0.03900
Br4265     Br  0.30826183  0.59573708  0.17172528     0.00600
Br4266     Br  0.35048158  0.62626909  0.11521548    -0.03200
Br4267     Br  0.31645516  0.65193225  0.13962140    -0.04100
Br4268     Br  0.29884182  0.61841952  0.07264338    -0.00100
C4269       C  0.17762805  0.43913865  0.04688148     0.01300
C4270       C  0.16892261  0.42886103  0.05597011     0.04200
C4271       C  0.16154782  0.43414246  0.06944793    -0.11900
C4272       C  0.16274008  0.44976730  0.07382699     0.23500
C4273       C  0.17177023  0.45995027  0.06492016    -0.12500
C4274       C  0.17928503  0.45460293  0.05153855     0.04900
C4275       C  0.15376917  0.45555311  0.08729382     0.27300
C4276       C  0.13800858  0.45909940  0.08553405    -0.13200
C4277       C  0.12902334  0.46308028  0.09845702     0.05400
C4278       C  0.13591200  0.46439272  0.11322162    -0.09100
C4279       C  0.15184798  0.46115759  0.11488384     0.06200
C4280       C  0.16068450  0.45664286  0.10196607    -0.13500
Br4281     Br  0.17296883  0.48142666  0.07049613    -0.05600
Br4282     Br  0.16634415  0.40776083  0.04941996     0.00100
Br4283     Br  0.10692019  0.46485760  0.09595920     0.00500
Br4284     Br  0.18225121  0.45156489  0.10427598    -0.03900
Br4285     Br  0.19137916  0.46855101  0.03911865     0.00600
Br4286     Br  0.14902042  0.42021855  0.08148087    -0.03200
Br4287     Br  0.12865939  0.45811430  0.06532173    -0.04100
Br4288     Br  0.16176106  0.46290937  0.13473973    -0.00100
C4289       C  0.12850415  0.49523501  0.18278696     0.01300
C4290       C  0.12324563  0.49639169  0.19817368     0.04200
C4291       C  0.13111859  0.50589508  0.20879982    -0.11900
C4292       C  0.14431069  0.51418154  0.20415419     0.23500
C4293       C  0.14987225  0.51259748  0.18898297    -0.12500
C4294       C  0.14193514  0.50330108  0.17829585     0.04900
C4295       C  0.15188007  0.52522941  0.21491434     0.27300
C4296       C  0.14726065  0.54079956  0.21498018    -0.13200
C4297       C  0.15479809  0.55151856  0.22457772     0.05400
C4298       C  0.16688204  0.54668363  0.23445731    -0.09100
C4299       C  0.17118422  0.53093895  0.23469692     0.06200
C4300       C  0.16389585  0.52033535  0.22472244    -0.13500
Br4301     Br  0.16842301  0.52326720  0.18288669    -0.05600
Br4302     Br  0.10468313  0.48588829  0.20450485     0.00100
Br4303     Br  0.14809364  0.57277307  0.22439083     0.00500
Br4304     Br  0.17078045  0.49919228  0.22386139    -0.03900
Br4305     Br  0.14975981  0.50143995  0.15752291     0.00600
Br4306     Br  0.12372611  0.50794320  0.22968838    -0.03200
Br4307     Br  0.13069533  0.54744182  0.20161548    -0.04100
Br4308     Br  0.18759323  0.52386115  0.24801131    -0.00100
C4309       C  0.05846967  0.36732375  0.09582214     0.01300
C4310       C  0.06399638  0.36248238  0.11042251     0.04200
C4311       C  0.06948030  0.37337492  0.12111910    -0.11900
C4312       C  0.06868880  0.38918530  0.11768762     0.23500
C4313       C  0.06182726  0.39415329  0.10379461    -0.12500
C4314       C  0.05705256  0.38328556  0.09270160     0.04900
C4315       C  0.07695453  0.40051228  0.12748115     0.27300
C4316       C  0.06964933  0.40761362  0.14015149    -0.13200
C4317       C  0.07688602  0.42006300  0.14770393     0.05400
C4318       C  0.09105085  0.42572431  0.14213942    -0.09100
C4319       C  0.09891719  0.41772248  0.13040857     0.06200
C4320       C  0.09200631  0.40495021  0.12329140    -0.13500
Br4321     Br  0.05995504  0.41597772  0.09964807    -0.05600
Br4322     Br  0.06409497  0.34092212  0.11598421     0.00100
Br4323     Br  0.06713213  0.42992141  0.16505670     0.00500
Br4324     Br  0.10280969  0.39393984  0.10723726    -0.03900
Br4325     Br  0.05029899  0.39054883  0.07272777     0.00600
Br4326     Br  0.07915896  0.36669650  0.14003021    -0.03200
Br4327     Br  0.04944532  0.40086158  0.14647651    -0.04100
Br4328     Br  0.11889898  0.42476263  0.12358434    -0.00100
C4329       C  0.98267484  0.51438250  0.14540836     0.01300
C4330       C  0.98846770  0.50566540  0.15790178     0.04200
C4331       C  0.00375442  0.50015533  0.15769355    -0.11900
C4332       C  0.01372489  0.50415546  0.14551770     0.23500
C4333       C  0.00817319  0.51330402  0.13325760    -0.12500
C4334       C  0.99260983  0.51814816  0.13302128     0.04900
C4335       C  0.03012363  0.49897445  0.14588694     0.27300
C4336       C  0.04110030  0.50719582  0.15466926    -0.13200
C4337       C  0.05643298  0.50184688  0.15571459     0.05400
C4338       C  0.06092909  0.48846856  0.14770987    -0.09100
C4339       C  0.04996296  0.48016808  0.13903823     0.06200
C4340       C  0.03458688  0.48539048  0.13814570    -0.13500
Br4341     Br  0.02212733  0.51955674  0.11708359    -0.05600
Br4342     Br  0.97555582  0.50124234  0.17544474     0.00100
Br4343     Br  0.07123792  0.51254810  0.16840961     0.00500
Br4344     Br  0.01948867  0.47372011  0.12671008    -0.03900
Br4345     Br  0.98532182  0.53083986  0.11620873     0.00600
Br4346     Br  0.01112247  0.48697176  0.17406536    -0.03200
Br4347     Br  0.03500225  0.52568262  0.16541053    -0.04100
Br4348     Br  0.05590383  0.46121077  0.12899923    -0.00100
C4349       C  0.95646957  0.57619620  0.13831254     0.01300
C4350       C  0.94724747  0.58837300  0.13275437     0.04200
C4351       C  0.95423183  0.60135260  0.12589756    -0.11900
C4352       C  0.97040197  0.60189508  0.12409359     0.23500
C4353       C  0.97963830  0.59019134  0.13057780    -0.12500
C4354       C  0.97267268  0.57743387  0.13779299     0.04900
C4355       C  0.97741552  0.61349224  0.11357544     0.27300
C4356       C  0.97845719  0.61016071  0.09769965    -0.13200
C4357       C  0.98429684  0.62122525  0.08737953     0.05400
C4358       C  0.98923410  0.63572890  0.09286870    -0.09100
C4359       C  0.98848667  0.63895687  0.10882952     0.06200
C4360       C  0.98261742  0.62782522  0.11916419    -0.13500
Br4361     Br  0.00177624  0.59117154  0.12861054    -0.05600
Br4362     Br  0.92507695  0.58655165  0.13318176     0.00100
Br4363     Br  0.98410565  0.61689613  0.06551905     0.00500
Br4364     Br  0.98128191  0.63221658  0.14092294    -0.03900
Br4365     Br  0.98527720  0.56117986  0.14631013     0.00600
Br4366     Br  0.94169608  0.61800379  0.11808225    -0.03200
Br4367     Br  0.97125042  0.59054245  0.09000838    -0.04100
Br4368     Br  0.99559886  0.65855892  0.11656227    -0.00100
C4369       C  0.40647139  0.46446237  0.34057048     0.01300
C4370       C  0.41328466  0.45638657  0.35295973     0.04200
C4371       C  0.40439867  0.45231212  0.36587030    -0.11900
C4372       C  0.38865524  0.45628656  0.36648093     0.23500
C4373       C  0.38181336  0.46441914  0.35416971    -0.12500
C4374       C  0.39067306  0.46833132  0.34110760     0.04900
C4375       C  0.37934747  0.45135574  0.37994756     0.27300
C4376       C  0.37242892  0.43666089  0.38000860    -0.13200
C4377       C  0.36566075  0.43089642  0.39359936     0.05400
C4378       C  0.36555199  0.43996989  0.40710142    -0.09100
C4379       C  0.37185703  0.45499764  0.40677298     0.06200
C4380       C  0.37881418  0.46062571  0.39324702    -0.13500
Br4381     Br  0.36032596  0.47008945  0.35533062    -0.05600
Br4382     Br  0.43458402  0.44994002  0.35186423     0.00100
Br4383     Br  0.35821330  0.40994262  0.39410355     0.00500
Br4384     Br  0.38846384  0.48068349  0.39311450    -0.03900
Br4385     Br  0.38121849  0.47897309  0.32400683     0.00600
Br4386     Br  0.41368194  0.44097287  0.38268398    -0.03200
Br4387     Br  0.37321492  0.42409794  0.36165906    -0.04100
Br4388     Br  0.37130383  0.46787381  0.42493086    -0.00100
C4389       C  0.41256096  0.49573488  0.26964302     0.01300
C4390       C  0.40008139  0.48987386  0.26090613     0.04200
C4391       C  0.39283617  0.49916702  0.24959460    -0.11900
C4392       C  0.39722391  0.51472358  0.24771678     0.23500
C4393       C  0.40934010  0.52071141  0.25675500    -0.12500
C4394       C  0.41735111  0.51115026  0.26719470     0.04900
C4395       C  0.38910344  0.52506761  0.23652011     0.27300
C4396       C  0.39622067  0.52910405  0.22243951    -0.13200
C4397       C  0.38985432  0.54080755  0.21301866     0.05400
C4398       C  0.37626265  0.54851956  0.21760912    -0.09100
C4399       C  0.36862502  0.54374686  0.23121203     0.06200
C4400       C  0.37505140  0.53214373  0.24064718    -0.13500
Br4401     Br  0.41470789  0.54226900  0.25505303    -0.05600
Br4402     Br  0.39195736  0.46964150  0.26527497     0.00100
Br4403     Br  0.40043027  0.54699170  0.19447330     0.00500
Br4404     Br  0.36491777  0.52638256  0.25961211    -0.03900
Br4405     Br  0.43545948  0.51917331  0.27743604     0.00600
Br4406     Br  0.37690042  0.49064891  0.23661438    -0.03200
Br4407     Br  0.41512130  0.51896370  0.21649670    -0.04100
Br4408     Br  0.34910562  0.55293375  0.23687595    -0.00100
C4409       C  0.48548991  0.36908698  0.36186967     0.01300
C4410       C  0.47971287  0.38331232  0.36731960     0.04200
C4411       C  0.47397664  0.39437011  0.35686073    -0.11900
C4412       C  0.47394108  0.39134353  0.34087512     0.23500
C4413       C  0.48030639  0.37743814  0.33536078    -0.12500
C4414       C  0.48614589  0.36638452  0.34582070     0.04900
C4415       C  0.46718889  0.40292335  0.33005186     0.27300
C4416       C  0.45103483  0.40386494  0.32808952    -0.13200
C4417       C  0.44444425  0.41650481  0.32021524     0.05400
C4418       C  0.45401015  0.42795494  0.31378308    -0.09100
C4419       C  0.47018676  0.42629634  0.31461080     0.06200
C4420       C  0.47676083  0.41395528  0.32291908    -0.13500
Br4421     Br  0.48068606  0.37345973  0.31348341    -0.05600
Br4422     Br  0.47864022  0.38739457  0.38919820     0.00100
Br4423     Br  0.42232558  0.41902645  0.31970546     0.00500
Br4424     Br  0.49884340  0.41271716  0.32544835    -0.03900
Br4425     Br  0.49558871  0.34778702  0.33814119     0.00600
Br4426     Br  0.46574916  0.41362353  0.36444456    -0.03200
Br4427     Br  0.43793668  0.38824889  0.33697582    -0.04100
Br4428     Br  0.48332220  0.44124514  0.30463131    -0.00100
C4429       C  0.67235486  0.56996105  0.40452455     0.01300
C4430       C  0.67280005  0.57740623  0.39000252     0.04200
C4431       C  0.66503977  0.57092950  0.37719024    -0.11900
C4432       C  0.65665766  0.55708157  0.37877969     0.23500
C4433       C  0.65646624  0.54947180  0.39311847    -0.12500
C4434       C  0.66437353  0.55574432  0.40587199     0.04900
C4435       C  0.64763399  0.55069682  0.36554419     0.27300
C4436       C  0.63192904  0.55456823  0.36377959    -0.13200
C4437       C  0.62329939  0.54841198  0.35144954     0.05400
C4438       C  0.63030160  0.53840685  0.34068248    -0.09100
C4439       C  0.64597833  0.53445397  0.34248457     0.06200
C4440       C  0.65458875  0.54048891  0.35495166    -0.13500
Br4441     Br  0.64497167  0.53052395  0.39529315    -0.05600
Br4442     Br  0.68301793  0.59702883  0.38774345     0.00100
Br4443     Br  0.60191652  0.55411189  0.34910926     0.00500
Br4444     Br  0.67593581  0.53484757  0.35763725    -0.03900
Br4445     Br  0.66445231  0.54437603  0.42506384     0.00600
Br4446     Br  0.66541742  0.58121756  0.35745870    -0.03200
Br4447     Br  0.62228572  0.56847759  0.37823234    -0.04100
Br4448     Br  0.65555985  0.52069876  0.32791879    -0.00100
C4449       C  0.55907846  0.50934842  0.29660595     0.01300
C4450       C  0.55488407  0.49394265  0.29990756     0.04200
C4451       C  0.53920526  0.48951607  0.29968268    -0.11900
C4452       C  0.52764520  0.50048525  0.29641172     0.23500
C4453       C  0.53181995  0.51564840  0.29245959    -0.12500
C4454       C  0.54744440  0.52002556  0.29226470     0.04900
C4455       C  0.51102703  0.49629660  0.29741770     0.27300
C4456       C  0.50257343  0.49307326  0.28393379    -0.13200
C4457       C  0.48669270  0.48975637  0.28481666     0.05400
C4458       C  0.47910185  0.48952344  0.29929075    -0.09100
C4459       C  0.48755353  0.49340133  0.31276143     0.06200
C4460       C  0.50349691  0.49648041  0.31180365    -0.13500
Br4461     Br  0.51593454  0.53058741  0.28773131    -0.05600
Br4462     Br  0.57056198  0.47865824  0.30389870     0.00100
Br4463     Br  0.47535195  0.48642296  0.26589398     0.00500
Br4464     Br  0.51526235  0.50064374  0.33028439    -0.03900
Br4465     Br  0.55244791  0.54099228  0.28654252     0.00600
Br4466     Br  0.53338313  0.46844433  0.30385041    -0.03200
Br4467     Br  0.51291117  0.49313654  0.26421319    -0.04100
Br4468     Br  0.47775271  0.49429650  0.33275900    -0.00100
C4469       C  0.58044627  0.57000631  0.31360169     0.01300
C4470       C  0.58709157  0.58441532  0.30969317     0.04200
C4471       C  0.58268591  0.59782740  0.31777155    -0.11900
C4472       C  0.57125665  0.59704803  0.32926574     0.23500
C4473       C  0.56335858  0.58313832  0.33185260    -0.12500
C4474       C  0.56786100  0.56965988  0.32407947     0.04900
C4475       C  0.56798477  0.61052068  0.33931329     0.27300
C4476       C  0.57540047  0.61171411  0.35374589    -0.13200
C4477       C  0.57088001  0.62320216  0.36426086     0.05400
C4478       C  0.55940200  0.63395665  0.36012036    -0.09100
C4479       C  0.55271827  0.63339718  0.34531059     0.06200
C4480       C  0.55679368  0.62150692  0.33501150    -0.13500
Br4481     Br  0.54666147  0.58251052  0.34659237    -0.05600
Br4482     Br  0.60257663  0.58611032  0.29378825     0.00100
Br4483     Br  0.58038248  0.62418166  0.38438488     0.00500
Br4484     Br  0.54698842  0.62003726  0.31509547    -0.03900
Br4485     Br  0.55645777  0.55086064  0.32805090     0.00600
Br4486     Br  0.59280803  0.61721256  0.31375043    -0.03200
Br4487     Br  0.59186043  0.59764757  0.35899252    -0.04100
Br4488     Br  0.53795172  0.64887279  0.33923936    -0.00100
C4489       C  0.65723529  0.38587594  0.18745154     0.01300
C4490       C  0.66311927  0.37074717  0.18583606     0.04200
C4491       C  0.65341185  0.35875161  0.18089017    -0.11900
C4492       C  0.63788217  0.36180697  0.17721959     0.23500
C4493       C  0.63193438  0.37681501  0.17881809    -0.12500
C4494       C  0.64157780  0.38886071  0.18389495     0.04900
C4495       C  0.62813664  0.34922742  0.17101390     0.27300
C4496       C  0.62730915  0.34687985  0.15493938    -0.13200
C4497       C  0.62020076  0.33355624  0.14907947     0.05400
C4498       C  0.61412664  0.32250312  0.15927848    -0.09100
C4499       C  0.61401974  0.32532170  0.17526336     0.06200
C4500       C  0.62108164  0.33866852  0.18115711    -0.13500
Br4501     Br  0.61058158  0.38075759  0.17385159    -0.05600
Br4502     Br  0.68481223  0.36649350  0.18885244     0.00100
Br4503     Br  0.62009634  0.32964702  0.12715786     0.00500
Br4504     Br  0.62239204  0.34182310  0.20314177    -0.03900
Br4505     Br  0.63314729  0.40935038  0.18606918     0.00600
Br4506     Br  0.66145375  0.33807648  0.17866518    -0.03200
Br4507     Br  0.63730480  0.36110578  0.14105504    -0.04100
Br4508     Br  0.60480923  0.31047274  0.18903594    -0.00100
C4509       C  0.66480103  0.45366165  0.22054950     0.01300
C4510       C  0.65952786  0.46743763  0.21330339     0.04200
C4511       C  0.65208191  0.47900124  0.22200233    -0.11900
C4512       C  0.64946596  0.47688702  0.23784230     0.23500
C4513       C  0.65411201  0.46312928  0.24505050    -0.12500
C4514       C  0.66186026  0.45161913  0.23660157     0.04900
C4515       C  0.64131210  0.48881343  0.24704860     0.27300
C4516       C  0.64977360  0.49992483  0.25539650    -0.13200
C4517       C  0.64220677  0.50953896  0.26609616     0.05400
C4518       C  0.62627577  0.50774672  0.26870102    -0.09100
C4519       C  0.61770737  0.49724858  0.25973279     0.06200
C4520       C  0.62517429  0.48799493  0.24872470    -0.13500
Br4521     Br  0.64955324  0.46011282  0.26670682    -0.05600
Br4522     Br  0.66147336  0.47064238  0.19132651     0.00100
Br4523     Br  0.65370353  0.52457329  0.27775745     0.00500
Br4524     Br  0.61343082  0.47382309  0.23622733    -0.03900
Br4525     Br  0.66846710  0.43343628  0.24777481     0.00600
Br4526     Br  0.64507798  0.49779636  0.21228811    -0.03200
Br4527     Br  0.67178893  0.50143636  0.25258439    -0.04100
Br4528     Br  0.59574196  0.49529105  0.26283745    -0.00100
C4529       C  0.88332404  0.39127876  0.27145383     0.01300
C4530       C  0.87702522  0.37787371  0.27821275     0.04200
C4531       C  0.88681851  0.36597998  0.28339640    -0.11900
C4532       C  0.90288098  0.36699032  0.28104735     0.23500
C4533       C  0.90915026  0.38019428  0.27393250    -0.12500
C4534       C  0.89944667  0.39252795  0.26960218     0.04900
C4535       C  0.91293463  0.35371233  0.28528287     0.27300
C4536       C  0.91931842  0.35252085  0.30021673    -0.13200
C4537       C  0.92736353  0.33906637  0.30466420     0.05400
C4538       C  0.92900244  0.32672893  0.29417611    -0.09100
C4539       C  0.92307505  0.32822885  0.27904617     0.06200
C4540       C  0.91508221  0.34165175  0.27464408    -0.13500
Br4541     Br  0.93096164  0.38109035  0.26968894    -0.05600
Br4542     Br  0.85498150  0.37593037  0.28083739     0.00100
Br4543     Br  0.93459651  0.33692313  0.32562204     0.00500
Br4544     Br  0.90615013  0.34318039  0.25428415    -0.03900
Br4545     Br  0.90819230  0.41093818  0.26068771     0.00600
Br4546     Br  0.87829958  0.34826407  0.29385914    -0.03200
Br4547     Br  0.91599926  0.36888726  0.31488819    -0.04100
Br4548     Br  0.92541139  0.31166088  0.26434703    -0.00100
C4549       C  0.87561279  0.45937176  0.23446566     0.01300
C4550       C  0.88605167  0.47038633  0.24047468     0.04200
C4551       C  0.89387015  0.48065977  0.23046712    -0.11900
C4552       C  0.89132412  0.48007460  0.21438561     0.23500
C4553       C  0.88062594  0.46937465  0.20843945    -0.12500
C4554       C  0.87285577  0.45908222  0.21835870     0.04900
C4555       C  0.90035382  0.49007049  0.20352271     0.27300
C4556       C  0.89570285  0.50534809  0.20037686    -0.13200
C4557       C  0.90367214  0.51432077  0.18930116     0.05400
C4558       C  0.91614815  0.50793739  0.18089911    -0.09100
C4559       C  0.92063394  0.49252722  0.18399596     0.06200
C4560       C  0.91304739  0.48384479  0.19549705    -0.13500
Br4561     Br  0.87672747  0.46876750  0.18650906    -0.05600
Br4562     Br  0.89054435  0.47078283  0.26227644     0.00100
Br4563     Br  0.89658656  0.53496174  0.18489185     0.00500
Br4564     Br  0.92001037  0.46324766  0.20035238    -0.03900
Br4565     Br  0.85805889  0.44488608  0.20965124     0.00600
Br4566     Br  0.90845473  0.49529724  0.23868358    -0.03200
Br4567     Br  0.87800530  0.51373975  0.21092911    -0.04100
Br4568     Br  0.93722577  0.48302587  0.17260195    -0.00100
C4569       C  0.81104136  0.42365606  0.23899294     0.01300
C4570       C  0.80168854  0.41107329  0.24338417     0.04200
C4571       C  0.78617752  0.41041750  0.23864493    -0.11900
C4572       C  0.78003285  0.42204787  0.22909187     0.23500
C4573       C  0.78958113  0.43419159  0.22400602    -0.12500
C4574       C  0.80497656  0.43515848  0.22918755     0.04900
C4575       C  0.76352499  0.42138830  0.22444948     0.27300
C4576       C  0.75883492  0.41130298  0.21259889    -0.13200
C4577       C  0.74313962  0.41016900  0.20860764     0.05400
C4578       C  0.73211758  0.41943382  0.21615183    -0.09100
C4579       C  0.73673920  0.42941488  0.22808272     0.06200
C4580       C  0.75241001  0.43029802  0.23233572    -0.13500
Br4581     Br  0.78157678  0.44934184  0.20977786    -0.05600
Br4582     Br  0.80975489  0.39506604  0.25664030     0.00100
Br4583     Br  0.73680578  0.39620644  0.19247680     0.00500
Br4584     Br  0.75866565  0.44361386  0.24901712    -0.03900
Br4585     Br  0.81784843  0.45202044  0.22252536     0.00600
Br4586     Br  0.77314715  0.39372825  0.24551767    -0.03200
Br4587     Br  0.77401348  0.39922760  0.20168527    -0.04100
Br4588     Br  0.72144802  0.44151311  0.23880519    -0.00100
C4589       C  0.83446104  0.42208606  0.30541527     0.01300
C4590       C  0.84452372  0.41690149  0.31712780     0.04200
C4591       C  0.83852325  0.40995421  0.33055508    -0.11900
C4592       C  0.82246197  0.40802674  0.33229740     0.23500
C4593       C  0.81237879  0.41459067  0.32133156    -0.12500
C4594       C  0.81836026  0.42148126  0.30785057     0.04900
C4595       C  0.81654405  0.39682061  0.34396107     0.27300
C4596       C  0.81532743  0.38114503  0.33984495    -0.13200
C4597       C  0.81129801  0.36999879  0.35095113     0.05400
C4598       C  0.80815037  0.37443090  0.36631646    -0.09100
C4599       C  0.80918261  0.39020174  0.37041015     0.06200
C4600       C  0.81331285  0.40135337  0.35923311    -0.13500
Br4601     Br  0.79039337  0.41328673  0.32443296    -0.05600
Br4602     Br  0.86654446  0.41744340  0.31395916     0.00100
Br4603     Br  0.81172887  0.34845724  0.34528921     0.00500
Br4604     Br  0.81486041  0.42282322  0.36477767    -0.03900
Br4605     Br  0.80450942  0.42947485  0.29232342     0.00600
Br4606     Br  0.85230087  0.40186823  0.34607333    -0.03200
Br4607     Br  0.81986607  0.37487071  0.31895013    -0.04100
Br4608     Br  0.80488652  0.39663873  0.39127528    -0.00100
C4609       C  0.74299318  0.37005031  0.09334558     0.01300
C4610       C  0.73963098  0.38565549  0.08995714     0.04200
C4611       C  0.73337273  0.39535157  0.10137349    -0.11900
C4612       C  0.73067321  0.38962511  0.11631281     0.23500
C4613       C  0.73480973  0.37433311  0.11999410    -0.12500
C4614       C  0.74101146  0.36455985  0.10859208     0.04900
C4615       C  0.72239171  0.39913851  0.12791238     0.27300
C4616       C  0.73057989  0.40909254  0.13783842    -0.13200
C4617       C  0.72290567  0.41630498  0.15020681     0.05400
C4618       C  0.70722825  0.41311419  0.15298032    -0.09100
C4619       C  0.69889224  0.40376576  0.14265372     0.06200
C4620       C  0.70638185  0.39707700  0.12992914    -0.13500
Br4621     Br  0.73092185  0.36653144  0.14051829    -0.05600
Br4622     Br  0.74365293  0.39390976  0.06964976     0.00100
Br4623     Br  0.73397979  0.42979795  0.16400700     0.00500
Br4624     Br  0.69496719  0.38423599  0.11577798    -0.03900
Br4625     Br  0.74545011  0.34335816  0.11382074     0.00600
Br4626     Br  0.72761474  0.41624371  0.09635754    -0.03200
Br4627     Br  0.75247873  0.41187903  0.13518622    -0.04100
Br4628     Br  0.67749807  0.39912569  0.14670520    -0.00100
C4629       C  0.64470855  0.28781476  0.11074065     0.01300
C4630       C  0.64141227  0.29311343  0.09562551     0.04200
C4631       C  0.65318293  0.29958067  0.08647362    -0.11900
C4632       C  0.66832854  0.30063157  0.09222016     0.23500
C4633       C  0.67178679  0.29490424  0.10703957    -0.12500
C4634       C  0.66007285  0.28845829  0.11626571     0.04900
C4635       C  0.68060175  0.30809625  0.08285765     0.27300
C4636       C  0.68966561  0.29923468  0.07267479    -0.13200
C4637       C  0.70231763  0.30601521  0.06506603     0.05400
C4638       C  0.70575024  0.32170207  0.06742210    -0.09100
C4639       C  0.69595013  0.33083124  0.07658935     0.06200
C4640       C  0.68354356  0.32400107  0.08451975    -0.13500
Br4641     Br  0.69254085  0.29661994  0.11497330    -0.05600
Br4642     Br  0.62090261  0.29122640  0.08709655     0.00100
Br4643     Br  0.71535453  0.29378165  0.05184375     0.00500
Br4644     Br  0.67113528  0.33619171  0.09838718    -0.03900
Br4645     Br  0.66516723  0.28163732  0.13689233     0.00600
Br4646     Br  0.64860076  0.30753692  0.06617477    -0.03200
Br4647     Br  0.68512448  0.27767054  0.06976749    -0.04100
Br4648     Br  0.69991938  0.35262038  0.07860286    -0.00100
C4649       C  0.83656899  0.09538704  0.15002564     0.01300
C4650       C  0.84433990  0.10628151  0.14081395     0.04200
C4651       C  0.83705982  0.11257473  0.12775170    -0.11900
C4652       C  0.82183685  0.10824530  0.12399919     0.23500
C4653       C  0.81444308  0.09656415  0.13256383    -0.12500
C4654       C  0.82188251  0.09002898  0.14550842     0.04900
C4655       C  0.81358465  0.11686782  0.11165673     0.27300
C4656       C  0.80703777  0.13135361  0.11506133    -0.13200
C4657       C  0.80281280  0.14146023  0.10304383     0.05400
C4658       C  0.80454108  0.13682091  0.08749394    -0.09100
C4659       C  0.80957188  0.12164817  0.08421554     0.06200
C4660       C  0.81435475  0.11182957  0.09625766    -0.13500
Br4661     Br  0.79387317  0.09018178  0.12703053    -0.05600
Br4662     Br  0.86485348  0.11292330  0.14640588     0.00100
Br4663     Br  0.79652584  0.16222419  0.10815827     0.00500
Br4664     Br  0.82302079  0.09186963  0.09168357    -0.03900
Br4665     Br  0.81151651  0.07463984  0.15776550     0.00600
Br4666     Br  0.84765247  0.12771273  0.11530672    -0.03200
Br4667     Br  0.80493208  0.13772350  0.13629862    -0.04100
Br4668     Br  0.81011981  0.11423458  0.06321805    -0.00100
C4669       C  0.76794477  0.29477271  0.05413664     0.01300
C4670       C  0.76867937  0.28735348  0.03958212     0.04200
C4671       C  0.77237850  0.27157104  0.03861117    -0.11900
C4672       C  0.77615249  0.26319440  0.05201604     0.23500
C4673       C  0.77635746  0.27071048  0.06641764    -0.12500
C4674       C  0.77189276  0.28630482  0.06757810     0.04900
C4675       C  0.77978373  0.24643943  0.05095138     0.27300
C4676       C  0.76880895  0.23537834  0.05559368    -0.13200
C4677       C  0.77243091  0.21953628  0.05506624     0.05400
C4678       C  0.78682289  0.21459527  0.04917387    -0.09100
C4679       C  0.79733338  0.22573989  0.04343102     0.06200
C4680       C  0.79407144  0.24156846  0.04496661    -0.13500
Br4681     Br  0.78273005  0.25948845  0.08460541    -0.05600
Br4682     Br  0.76526496  0.29869350  0.02067174     0.00100
Br4683     Br  0.75721788  0.20468925  0.06170674     0.00500
Br4684     Br  0.80943270  0.25670713  0.03936502    -0.03900
Br4685     Br  0.77016539  0.29536439  0.08786804     0.00600
Br4686     Br  0.77203110  0.26124988  0.01885930    -0.03200
Br4687     Br  0.74871541  0.24202240  0.06255745    -0.04100
Br4688     Br  0.81644924  0.21977350  0.03358988    -0.00100
C4689       C  0.84522564  0.18840670  0.06733978     0.01300
C4690       C  0.84502506  0.20295559  0.07477371     0.04200
C4691       C  0.85825515  0.20845911  0.08243166    -0.11900
C4692       C  0.87174627  0.19945096  0.08294281     0.23500
C4693       C  0.87233227  0.18539643  0.07479789    -0.12500
C4694       C  0.85915060  0.17990725  0.06692853     0.04900
C4695       C  0.88484777  0.20423789  0.09299794     0.27300
C4696       C  0.89769892  0.21199116  0.08676330    -0.13200
C4697       C  0.91021522  0.21603892  0.09633472     0.05400
C4698       C  0.90944464  0.21341165  0.11235944    -0.09100
C4699       C  0.89653456  0.20574591  0.11862607     0.06200
C4700       C  0.88438836  0.20096982  0.10893747    -0.13500
Br4701     Br  0.89107454  0.17337188  0.07512455    -0.05600
Br4702     Br  0.82665128  0.21558070  0.07459917     0.00100
Br4703     Br  0.92850146  0.22492443  0.08744966     0.00500
Br4704     Br  0.86713605  0.18974722  0.11743192    -0.03900
Br4705     Br  0.86000555  0.16018103  0.05671764     0.00600
Br4706     Br  0.85788217  0.22822646  0.09267346    -0.03200
Br4707     Br  0.89791954  0.21740921  0.06519747    -0.04100
Br4708     Br  0.89592029  0.20087679  0.14036372    -0.00100
C4709       C  0.65632935  0.12054490  0.94328139     0.01300
C4710       C  0.65978122  0.13446932  0.93539061     0.04200
C4711       C  0.64781359  0.14378477  0.92949130    -0.11900
C4712       C  0.63233248  0.13974011  0.93206208     0.23500
C4713       C  0.62882476  0.12690286  0.94137578    -0.12500
C4714       C  0.64071211  0.11718527  0.94681745     0.04900
C4715       C  0.61970714  0.14777911  0.92362524     0.27300
C4716       C  0.61239555  0.16087319  0.92990985    -0.13200
C4717       C  0.59908258  0.16700289  0.92277207     0.05400
C4718       C  0.59299137  0.15988503  0.90945735    -0.09100
C4719       C  0.60099417  0.14749948  0.90259868     0.06200
C4720       C  0.61436326  0.14154040  0.90960225    -0.13500
Br4721     Br  0.60749089  0.12226631  0.94588174    -0.05600
Br4722     Br  0.68086691  0.14119580  0.93278823     0.00100
Br4723     Br  0.58863993  0.18442198  0.93184227     0.00500
Br4724     Br  0.62515230  0.12443380  0.90027900    -0.03900
Br4725     Br  0.63507875  0.09874269  0.95795093     0.00600
Br4726     Br  0.65249643  0.16168268  0.91711143    -0.03200
Br4727     Br  0.62031631  0.16993174  0.94860286    -0.04100
Br4728     Br  0.59355371  0.13859026  0.88357704    -0.00100
C4729       C  0.78030921  0.14577502  0.01911657     0.01300
C4730       C  0.76963147  0.13428633  0.02364814     0.04200
C4731       C  0.75970933  0.12750036  0.01270657    -0.11900
C4732       C  0.76052284  0.13185678  0.99707477     0.23500
C4733       C  0.77164690  0.14272489  0.99235198    -0.12500
C4734       C  0.78152683  0.14967242  0.00331277     0.04900
C4735       C  0.74903189  0.12557502  0.98589881     0.27300
C4736       C  0.75239625  0.11230176  0.97713101    -0.13200
C4737       C  0.74091893  0.10557013  0.96773344     0.05400
C4738       C  0.72585219  0.11179454  0.96748151    -0.09100
C4739       C  0.72267672  0.12539595  0.97584409     0.06200
C4740       C  0.73426767  0.13233254  0.98487942    -0.13500
Br4741     Br  0.77273826  0.14857582  0.97090982    -0.05600
Br4742     Br  0.76876054  0.12738008  0.04482645     0.00100
Br4743     Br  0.74560942  0.08717334  0.95612577     0.00500
Br4744     Br  0.72981530  0.15083344  0.99640798    -0.03900
Br4745     Br  0.79588680  0.16529514  0.99667289     0.00600
Br4746     Br  0.74449081  0.11256639  0.01916546    -0.03200
Br4747     Br  0.77247262  0.10284172  0.97878383    -0.04100
Br4748     Br  0.70241829  0.13464548  0.97488204    -0.00100
C4749       C  0.67596178  0.06658458  0.90748406     0.01300
C4750       C  0.67484626  0.07572356  0.89402982     0.04200
C4751       C  0.66758897  0.06982652  0.88074068    -0.11900
C4752       C  0.66137580  0.05483007  0.88084784     0.23500
C4753       C  0.66289653  0.04551041  0.89404772    -0.12500
C4754       C  0.67000484  0.05139273  0.90739657     0.04900
C4755       C  0.65149485  0.04953308  0.86792981     0.27300
C4756       C  0.63544251  0.05194542  0.86876340    -0.13200
C4757       C  0.62576680  0.04639987  0.85702263     0.05400
C4758       C  0.63213728  0.03861382  0.84424520    -0.09100
C4759       C  0.64822783  0.03647376  0.84322114     0.06200
C4760       C  0.65789893  0.04179246  0.85515893    -0.13500
Br4761     Br  0.65443980  0.02489678  0.89395080    -0.05600
Br4762     Br  0.68146662  0.09697486  0.89429130     0.00100
Br4763     Br  0.60383797  0.05037658  0.85806972     0.00500
Br4764     Br  0.67987282  0.03852132  0.85411237    -0.03900
Br4765     Br  0.67098129  0.03862049  0.92561476     0.00600
Br4766     Br  0.66519582  0.08258670  0.86265213    -0.03200
Br4767     Br  0.62675961  0.06315348  0.88593897    -0.04100
Br4768     Br  0.65692660  0.02596463  0.82565327    -0.00100
C4769       C  0.66232779  0.89144686  0.02179218     0.01300
C4770       C  0.66339583  0.87518622  0.02204608     0.04200
C4771       C  0.65078750  0.86627327  0.02716529    -0.11900
C4772       C  0.63714085  0.87354191  0.03214103     0.23500
C4773       C  0.63623961  0.88974982  0.03240862    -0.12500
C4774       C  0.64880818  0.89867856  0.02734116     0.04900
C4775       C  0.62344376  0.86416606  0.03637398     0.27300
C4776       C  0.61251071  0.86040696  0.02496568    -0.13200
C4777       C  0.59898582  0.85243412  0.02898448     0.05400
C4778       C  0.59642930  0.84789607  0.04441425    -0.09100
C4779       C  0.60775860  0.85098974  0.05571185     0.06200
C4780       C  0.62111876  0.85935452  0.05173226    -0.13500
Br4781     Br  0.61773364  0.89967792  0.03983866    -0.05600
Br4782     Br  0.68186832  0.86501418  0.01499102     0.00100
Br4783     Br  0.58391227  0.84787422  0.01325134     0.00500
Br4784     Br  0.63580926  0.86509417  0.06743206    -0.03900
Br4785     Br  0.64780858  0.92086342  0.02908490     0.00600
Br4786     Br  0.65197391  0.84404800  0.02731204    -0.03200
Br4787     Br  0.61584187  0.86678721  0.00389021    -0.04100
Br4788     Br  0.60450112  0.84487870  0.07688103    -0.00100
C4789       C  0.69910592  0.96546291  0.99316809     0.01300
C4790       C  0.68515893  0.97394684  0.99248095     0.04200
C4791       C  0.68518361  0.98941616  0.98744634    -0.11900
C4792       C  0.69923364  0.99699779  0.98426096     0.23500
C4793       C  0.71323236  0.98877816  0.98572480    -0.12500
C4794       C  0.71313362  0.97296117  0.98953355     0.04900
C4795       C  0.69924514  0.01342101  0.97893241     0.27300
C4796       C  0.70303684  0.01696485  0.96350815    -0.13200
C4797       C  0.70318107  0.03239151  0.95840415     0.05400
C4798       C  0.69797167  0.04435038  0.96824585    -0.09100
C4799       C  0.69438252  0.04084170  0.98374930     0.06200
C4800       C  0.69541340  0.02551016  0.98916023    -0.13500
Br4801     Br  0.73264997  0.99930365  0.98284523    -0.05600
Br4802     Br  0.66603715  0.96501893  0.99966442     0.00100
Br4803     Br  0.71052821  0.03673984  0.93778610     0.00500
Br4804     Br  0.69160206  0.02106381  0.01064286    -0.03900
Br4805     Br  0.73227045  0.96152629  0.98893717     0.00600
Br4806     Br  0.66585080  0.00020276  0.98480125    -0.03200
Br4807     Br  0.70726345  0.00055780  0.94903561    -0.04100
Br4808     Br  0.68894980  0.05714377  0.99789801    -0.00100
C4809       C  0.69038953  0.93953286  0.05495529     0.01300
C4810       C  0.68873664  0.95561804  0.05670928     0.04200
C4811       C  0.68021389  0.96164811  0.06915341    -0.11900
C4812       C  0.67301682  0.95160136  0.07970507     0.23500
C4813       C  0.67584203  0.93560446  0.07874475    -0.12500
C4814       C  0.68474884  0.92960770  0.06652045     0.04900
C4815       C  0.66131060  0.95772675  0.09071170     0.27300
C4816       C  0.66555431  0.96220493  0.10574144    -0.13200
C4817       C  0.65434802  0.96805353  0.11599165     0.05400
C4818       C  0.63879905  0.96948036  0.11126682    -0.09100
C4819       C  0.63461624  0.96516214  0.09611292     0.06200
C4820       C  0.64581735  0.95923153  0.08593138    -0.13500
Br4821     Br  0.66648896  0.92186089  0.09350170    -0.05600
Br4822     Br  0.69775094  0.96933098  0.04167543     0.00100
Br4823     Br  0.66045623  0.97460316  0.13635165     0.00500
Br4824     Br  0.63989559  0.95263469  0.06548701    -0.03900
Br4825     Br  0.68814385  0.90770020  0.06487998     0.00600
Br4826     Br  0.67757488  0.98362511  0.07130827    -0.03200
Br4827     Br  0.68672239  0.96008609  0.11226738    -0.04100
Br4828     Br  0.61336416  0.96640531  0.08947353    -0.00100
C4829       C  0.70165550  0.59643817  0.80267432     0.01300
C4830       C  0.71735033  0.59458188  0.80643120     0.04200
C4831       C  0.72324649  0.60101358  0.82010138    -0.11900
C4832       C  0.71351448  0.60961415  0.82984383     0.23500
C4833       C  0.69768593  0.61107499  0.82632231    -0.12500
C4834       C  0.69174653  0.60443530  0.81275372     0.04900
C4835       C  0.72016730  0.61846647  0.84286778     0.27300
C4836       C  0.72114144  0.61193358  0.85769554    -0.13200
C4837       C  0.72645077  0.62085798  0.87020245     0.05400
C4838       C  0.73077696  0.63641134  0.86787633    -0.09100
C4839       C  0.73005277  0.64279367  0.85283916     0.06200
C4840       C  0.72499544  0.63374686  0.84038740    -0.13500
Br4841     Br  0.68440808  0.62297674  0.83964827    -0.05600
Br4842     Br  0.73096041  0.58422349  0.79221091     0.00100
Br4843     Br  0.72779940  0.61163321  0.89042459     0.00500
Br4844     Br  0.72420818  0.64239599  0.81984062    -0.03900
Br4845     Br  0.67024011  0.60698337  0.80751014     0.00600
Br4846     Br  0.74481717  0.59884535  0.82511364    -0.03200
Br4847     Br  0.71495647  0.59079087  0.86074293    -0.04100
Br4848     Br  0.73421399  0.66441275  0.84920650    -0.00100
C4849       C  0.69150437  0.68258420  0.89101497     0.01300
C4850       C  0.68498607  0.69629553  0.89685167     0.04200
C4851       C  0.67211326  0.70299629  0.88942295    -0.11900
C4852       C  0.66533243  0.69562810  0.87660387     0.23500
C4853       C  0.67089706  0.68114702  0.87179790    -0.12500
C4854       C  0.68411750  0.67479769  0.87875911     0.04900
C4855       C  0.65352717  0.70360991  0.86700308     0.27300
C4856       C  0.63772223  0.70221086  0.87039717    -0.13200
C4857       C  0.62656982  0.70760796  0.85982403     0.05400
C4858       C  0.63120510  0.71461616  0.84577891    -0.09100
C4859       C  0.64714933  0.71679348  0.84289012     0.06200
C4860       C  0.65820170  0.71130266  0.85348143    -0.13500
Br4861     Br  0.66081475  0.67045408  0.85503225    -0.05600
Br4862     Br  0.69434175  0.70648432  0.91425723     0.00100
Br4863     Br  0.60496741  0.70526452  0.86483960     0.00500
Br4864     Br  0.67996280  0.71356286  0.84916790    -0.03900
Br4865     Br  0.69232931  0.65556299  0.87115303     0.00600
Br4866     Br  0.66439462  0.72275332  0.89604261    -0.03200
Br4867     Br  0.63145212  0.69245447  0.88939042    -0.04100
Br4868     Br  0.65429820  0.72595102  0.82386056    -0.00100
C4869       C  0.80567935  0.86716865  0.85944853     0.01300
C4870       C  0.81172168  0.86174956  0.84534221     0.04200
C4871       C  0.81725335  0.87226346  0.83428462    -0.11900
C4872       C  0.81659508  0.88825176  0.83714786     0.23500
C4873       C  0.81026271  0.89369624  0.85108212    -0.12500
C4874       C  0.80496251  0.88317042  0.86228832     0.04900
C4875       C  0.82209086  0.89918365  0.82512680     0.27300
C4876       C  0.83761638  0.90406575  0.82491095    -0.13200
C4877       C  0.84340734  0.91223730  0.81208849     0.05400
C4878       C  0.83363444  0.91561658  0.79950928    -0.09100
C4879       C  0.81785475  0.91163385  0.80025488     0.06200
C4880       C  0.81212040  0.90341598  0.81301145    -0.13500
Br4881     Br  0.80874626  0.91557552  0.85465887    -0.05600
Br4882     Br  0.81328715  0.83987707  0.84142912     0.00100
Br4883     Br  0.86507531  0.91723690  0.81102232     0.00500
Br4884     Br  0.79080206  0.89700430  0.81351344    -0.03900
Br4885     Br  0.79628026  0.89066178  0.88135252     0.00600
Br4886     Br  0.82594013  0.86479866  0.81518484    -0.03200
Br4887     Br  0.85114651  0.89860198  0.84172744    -0.04100
Br4888     Br  0.80413290  0.91700413  0.78351118    -0.00100
C4889       C  0.77388240  0.85618099  0.92809719     0.01300
C4890       C  0.78145171  0.86686471  0.93784697     0.04200
C4891       C  0.77313489  0.87480218  0.94938590    -0.11900
C4892       C  0.75724345  0.87206013  0.95145578     0.23500
C4893       C  0.74975654  0.86109278  0.94207907    -0.12500
C4894       C  0.75793718  0.85334423  0.93032290     0.04900
C4895       C  0.74816869  0.88136460  0.96281157     0.27300
C4896       C  0.74645441  0.87638712  0.97820974    -0.13200
C4897       C  0.73723761  0.88488568  0.98864446     0.05400
C4898       C  0.72954797  0.89841085  0.98371544    -0.09100
C4899       C  0.73182628  0.90368930  0.96842673     0.06200
C4900       C  0.74105438  0.89519230  0.95805712    -0.13500
Br4901     Br  0.72818747  0.85670681  0.94545806    -0.05600
Br4902     Br  0.80300462  0.87159292  0.93481785     0.00100
Br4903     Br  0.73458436  0.87747087  0.00945128     0.00500
Br4904     Br  0.74399710  0.90241238  0.93718558    -0.03900
Br4905     Br  0.74713130  0.83861712  0.91756049     0.00600
Br4906     Br  0.78338227  0.88978525  0.96223044    -0.03200
Br4907     Br  0.75655676  0.85770633  0.98483852    -0.04100
Br4908     Br  0.72292550  0.92299711  0.96175083    -0.00100
C4909       C  0.77756256  0.79109901  0.89170278     0.01300
C4910       C  0.77008753  0.78468007  0.90463896     0.04200
C4911       C  0.76585361  0.76902405  0.90465758    -0.11900
C4912       C  0.76891547  0.75972093  0.89168731     0.23500
C4913       C  0.77620885  0.76615122  0.87866175    -0.12500
C4914       C  0.78056615  0.78179995  0.87867180     0.04900
C4915       C  0.76413908  0.74326576  0.89178763     0.27300
C4916       C  0.77487515  0.73157235  0.89540235    -0.13200
C4917       C  0.76993275  0.71615856  0.89687365     0.05400
C4918       C  0.75418740  0.71247107  0.89512427    -0.09100
C4919       C  0.74365048  0.72404799  0.89063915     0.06200
C4920       C  0.74860706  0.73939642  0.88899048    -0.13500
Br4921     Br  0.78050745  0.75338895  0.86095442    -0.05600
Br4922     Br  0.76521371  0.79743386  0.92220703     0.00100
Br4923     Br  0.78467306  0.70021769  0.90163598     0.00500
Br4924     Br  0.73410832  0.75524928  0.88306962    -0.03900
Br4925     Br  0.79157040  0.79014533  0.86119338     0.00600
Br4926     Br  0.75607231  0.76015969  0.92258958    -0.03200
Br4927     Br  0.79625109  0.73679325  0.89878168    -0.04100
Br4928     Br  0.72257428  0.71876765  0.88585352    -0.00100
C4929       C  0.84099402  0.81693330  0.88372008     0.01300
C4930       C  0.84319355  0.80095423  0.88165074     0.04200
C4931       C  0.85652501  0.79546013  0.87419462    -0.11900
C4932       C  0.86785506  0.80591111  0.86908359     0.23500
C4933       C  0.86604735  0.82182500  0.87188775    -0.12500
C4934       C  0.85256691  0.82734756  0.87906760     0.04900
C4935       C  0.88073610  0.80045974  0.85920879     0.27300
C4936       C  0.89516353  0.79666431  0.86568789    -0.13200
C4937       C  0.90755501  0.79247590  0.85604905     0.05400
C4938       C  0.90558677  0.79225923  0.83988525    -0.09100
C4939       C  0.89110162  0.79603781  0.83343575     0.06200
C4940       C  0.87864379  0.79981313  0.84310322    -0.13500
Br4941     Br  0.88151437  0.83611925  0.86469585    -0.05600
Br4942     Br  0.82764702  0.78663903  0.88862172     0.00100
Br4943     Br  0.92720258  0.78693453  0.86500259     0.00500
Br4944     Br  0.85868924  0.80450674  0.83431508    -0.03900
Br4945     Br  0.84917909  0.84926430  0.88089943     0.00600
Br4946     Br  0.85874178  0.77376933  0.86980235    -0.03200
Br4947     Br  0.89794860  0.79749390  0.88773681    -0.04100
Br4948     Br  0.88862412  0.79770459  0.81134876    -0.00100
C4949       C  0.88413651  0.38844204  0.93507968     0.01300
C4950       C  0.90020821  0.39124464  0.93629364     0.04200
C4951       C  0.91086847  0.37994607  0.93155584    -0.11900
C4952       C  0.90568753  0.36605009  0.92495807     0.23500
C4953       C  0.88979336  0.36303108  0.92395232    -0.12500
C4954       C  0.87902104  0.37408681  0.92909255     0.04900
C4955       C  0.91712123  0.35535503  0.91797706     0.27300
C4956       C  0.92182354  0.35765150  0.90258248    -0.13200
C4957       C  0.93494574  0.34997946  0.89688671     0.05400
C4958       C  0.94357295  0.34026436  0.90666278    -0.09100
C4959       C  0.93808522  0.33695818  0.92158956     0.06200
C4960       C  0.92468819  0.34427238  0.92715159    -0.13500
Br4961     Br  0.88292926  0.34378679  0.91515050    -0.05600
Br4962     Br  0.90804107  0.41107520  0.94279362     0.00100
Br4963     Br  0.94192744  0.35381770  0.87611786     0.00500
Br4964     Br  0.91716214  0.33985363  0.94759895    -0.03900
Br4965     Br  0.85731709  0.36920627  0.92780785     0.00600
Br4966     Br  0.93277633  0.38365590  0.93356985    -0.03200
Br4967     Br  0.91096060  0.37225449  0.88974044    -0.04100
Br4968     Br  0.94955504  0.32324638  0.93474367    -0.00100
C4969       C  0.82125602  0.40172587  0.96969921     0.01300
C4970       C  0.80772162  0.40923300  0.97466556     0.04200
C4971       C  0.79756813  0.40180809  0.98501279    -0.11900
C4972       C  0.80067603  0.38663596  0.99014510     0.23500
C4973       C  0.81416413  0.37909296  0.98499315    -0.12500
C4974       C  0.82451490  0.38669523  0.97501861     0.04900
C4975       C  0.79049264  0.37901604  0.00182869     0.27300
C4976       C  0.79177801  0.38305672  0.01753380    -0.13200
C4977       C  0.78279510  0.37544987  0.02877004     0.05400
C4978       C  0.77257830  0.36346219  0.02446358    -0.09100
C4979       C  0.77128504  0.35943694  0.00870998     0.06200
C4980       C  0.78010063  0.36726160  0.99745379    -0.13500
Br4981     Br  0.81882061  0.35852540  0.99214005    -0.05600
Br4982     Br  0.80378367  0.43018035  0.96822999     0.00100
Br4983     Br  0.78432237  0.38193430  0.05002771     0.00500
Br4984     Br  0.77824215  0.36158259  0.97601807    -0.03900
Br4985     Br  0.84336739  0.37658135  0.96883050     0.00600
Br4986     Br  0.77988039  0.41278083  0.99286382    -0.03200
Br4987     Br  0.80625745  0.39883509  0.02368930    -0.04100
Br4988     Br  0.75836982  0.34236750  0.00255220    -0.00100
C4989       C  0.86176364  0.44145964  0.89969737     0.01300
C4990       C  0.87343219  0.43401874  0.89116429     0.04200
C4991       C  0.88002795  0.44134183  0.87831317    -0.11900
C4992       C  0.87514087  0.45624877  0.87404807     0.23500
C4993       C  0.86271500  0.46323613  0.88184925    -0.12500
C4994       C  0.85590166  0.45575910  0.89460037     0.04900
C4995       C  0.88392454  0.46470660  0.86202761     0.27300
C4996       C  0.89746604  0.47264636  0.86617113    -0.13200
C4997       C  0.90800469  0.47734217  0.85474098     0.05400
C4998       C  0.90471033  0.47457815  0.83896052    -0.09100
C4999       C  0.89023939  0.46811812  0.83486014     0.06200
C5000       C  0.87996890  0.46310801  0.84639587    -0.13500
Br5001     Br  0.85570854  0.48335889  0.87549719    -0.05600
Br5002     Br  0.88065680  0.41385390  0.89734261     0.00100
Br5003     Br  0.92750809  0.48600386  0.86122024     0.00500
Br5004     Br  0.86062440  0.45354443  0.84094293    -0.03900
Br5005     Br  0.83930290  0.46553865  0.90566544     0.00600
Br5006     Br  0.89631243  0.43125733  0.86692559    -0.03200
Br5007     Br  0.90176098  0.47647768  0.88769857    -0.04100
Br5008     Br  0.88423090  0.46592933  0.81350057    -0.00100
C5009       C  0.95409887  0.65639310  0.03980603     0.01300
C5010       C  0.95391143  0.64471511  0.02830232     0.04200
C5011       C  0.93981514  0.63860573  0.02302327    -0.11900
C5012       C  0.92576397  0.64394653  0.02913113     0.23500
C5013       C  0.92579024  0.65616011  0.03983427    -0.12500
C5014       C  0.93986888  0.66243527  0.04513127     0.04900
C5015       C  0.91129936  0.63524036  0.02591596     0.27300
C5016       C  0.90030932  0.64065291  0.01515502    -0.13200
C5017       C  0.88674163  0.63208854  0.01234224     0.05400
C5018       C  0.88465220  0.61764189  0.01946289    -0.09100
C5019       C  0.89570685  0.61219093  0.03009368     0.06200
C5020       C  0.90878222  0.62112018  0.03358389    -0.13500
Br5021     Br  0.90642941  0.66351714  0.04800754    -0.05600
Br5022     Br  0.97280314  0.63666905  0.01951815     0.00100
Br5023     Br  0.87084773  0.64016479  0.99902765     0.00500
Br5024     Br  0.92346486  0.61392157  0.04878226    -0.03900
Br5025     Br  0.93929561  0.67835569  0.06066637     0.00600
Br5026     Br  0.93964632  0.62213549  0.00799270    -0.03200
Br5027     Br  0.90415206  0.65941364  0.00387159    -0.04100
Br5028     Br  0.89310811  0.59233008  0.03977320    -0.00100
C5029       C  0.75939791  0.64901232  0.93918391     0.01300
C5030       C  0.75394790  0.63554156  0.94658263     0.04200
C5031       C  0.76343701  0.62759762  0.95726247    -0.11900
C5032       C  0.77835900  0.63311739  0.96075497     0.23500
C5033       C  0.78345409  0.64698887  0.95399640    -0.12500
C5034       C  0.77404081  0.65489499  0.94331812     0.04900
C5035       C  0.78918111  0.62394327  0.97065116     0.27300
C5036       C  0.79064674  0.62701811  0.98656984    -0.13200
C5037       C  0.80195298  0.61929893  0.99549919     0.05400
C5038       C  0.81208953  0.60860490  0.98848949    -0.09100
C5039       C  0.81009198  0.60506440  0.97267826     0.06200
C5040       C  0.79872517  0.61268630  0.96384664    -0.13500
Br5041     Br  0.80364675  0.65490511  0.95906232    -0.05600
Br5042     Br  0.73392765  0.62732873  0.94139126     0.00100
Br5043     Br  0.80395177  0.62403624  0.01714835     0.00500
Br5044     Br  0.79635220  0.60792064  0.94222361    -0.03900
Br5045     Br  0.78116564  0.67409793  0.93467358     0.00600
Br5046     Br  0.75632616  0.60876969  0.96669684    -0.03200
Br5047     Br  0.77738763  0.64218732  0.99596690    -0.04100
Br5048     Br  0.82248160  0.58926026  0.96307014    -0.00100
C5049       C  0.85128893  0.54509480  0.99006877     0.01300
C5050       C  0.86477865  0.53640997  0.99305072     0.04200
C5051       C  0.86607432  0.52119990  0.98753323    -0.11900
C5052       C  0.85404636  0.51466021  0.97880106     0.23500
C5053       C  0.84064804  0.52333603  0.97567290    -0.12500
C5054       C  0.83910154  0.53837675  0.98160497     0.04900
C5055       C  0.85515275  0.49839785  0.97352735     0.27300
C5056       C  0.86228272  0.49484036  0.95936595    -0.13200
C5057       C  0.86282255  0.47946059  0.95419250     0.05400
C5058       C  0.85615895  0.46762234  0.96312348    -0.09100
C5059       C  0.84930405  0.47113063  0.97740937     0.06200
C5060       C  0.84889864  0.48648579  0.98266286    -0.13500
Br5061     Br  0.82441254  0.51448140  0.96326852    -0.05600
Br5062     Br  0.88099832  0.54475215  0.00586029     0.00100
Br5063     Br  0.87230173  0.47462709  0.93465173     0.00500
Br5064     Br  0.83973153  0.49132385  0.00234490    -0.03900
Br5065     Br  0.82019296  0.54960874  0.97820969     0.00600
Br5066     Br  0.88410165  0.50902495  0.99232689    -0.03200
Br5067     Br  0.87105518  0.51111660  0.94699683    -0.04100
Br5068     Br  0.84044602  0.45485834  0.98969932    -0.00100
C5069       C  0.85607165  0.56783713  0.05456818     0.01300
C5070       C  0.85743669  0.55165443  0.05575477     0.04200
C5071       C  0.86441810  0.54498290  0.06880924    -0.11900
C5072       C  0.87054663  0.55446808  0.08046487     0.23500
C5073       C  0.86809945  0.57054449  0.07988790    -0.12500
C5074       C  0.86087187  0.57724091  0.06694107     0.04900
C5075       C  0.88161793  0.54793392  0.09183937     0.27300
C5076       C  0.87708367  0.54484248  0.10711241    -0.13200
C5077       C  0.88817250  0.54033375  0.11815005     0.05400
C5078       C  0.90381110  0.53850962  0.11383646    -0.09100
C5079       C  0.90811513  0.54072286  0.09826864     0.06200
C5080       C  0.89705528  0.54545701  0.08734598    -0.13500
Br5081     Br  0.87572430  0.58346617  0.09633092    -0.05600
Br5082     Br  0.85060120  0.53862402  0.03904370     0.00100
Br5083     Br  0.88179050  0.53644733  0.13911917     0.00500
Br5084     Br  0.90312112  0.54902459  0.06617639    -0.03900
Br5085     Br  0.85942255  0.59939690  0.06534259     0.00600
Br5086     Br  0.86661403  0.52289798  0.07035276    -0.03200
Br5087     Br  0.85564763  0.54677120  0.11276122    -0.04100
Br5088     Br  0.92936346  0.53855969  0.09191292    -0.00100
loop_ 
_geom_bond_atom_site_label_1 
_geom_bond_atom_site_label_2 
_geom_bond_distance 
_geom_bond_site_symmetry_2 
_ccdc_geom_bond_type 
In1           O3   2.245       .  S
In1           O4   2.247   1_554  S
In1          O12   2.247   1_554  S
In1           O6   2.276       .  S
In1           O8   2.274       .  S
In1           O9   2.252       .  S
In1          O10   2.214       .  S
In1          O13   2.254       .  S
C2            O8   1.267       .  A
C2           O10   1.257       .  A
C2         C5069   1.476       .  S
O3           C11   1.262   1_554  A
O4           C11   1.264       .  A
C5           O12   1.261       .  A
C5            O6   1.264   1_556  A
C5         C5038   1.494       .  S
C7            O9   1.262       .  A
C7           O13   1.261       .  A
C7         C5018   1.477       .  S
C11        C5049   1.481       .  S
In14         O16   2.233       .  S
In14         O17   2.254       .  S
In14         O25   2.230       .  S
In14         O19   2.261       .  S
In14         O21   2.271       .  S
In14         O22   2.245       .  S
In14         O23   2.205       .  S
In14         O26   2.231       .  S
C15          O21   1.270       .  A
C15          O23   1.260       .  A
C15        C4989   1.475       .  S
O16          C24   1.261       .  A
O17          C24   1.265       .  A
C18          O25   1.262       .  A
C18          O19   1.268       .  A
C18        C4969   1.482       .  S
C20          O22   1.267       .  A
C20          O26   1.263       .  A
C20        C4949   1.492       .  S
C24        C5058   1.474       .  S
In27         O29   2.227       .  S
In27         O30   2.248       .  S
In27         O38   2.246       .  S
In27         O32   2.258       .  S
In27         O34   2.267       .  S
In27         O35   2.249       .  S
In27         O36   2.215       .  S
In27         O39   2.232       .  S
C28          O34   1.268       .  A
C28          O36   1.258       .  A
C28        C4929   1.474       .  S
O29          C37   1.262       .  A
O30          C37   1.266       .  A
C31          O38   1.263       .  A
C31          O32   1.266       .  A
C31        C4889   1.494       .  S
C33          O35   1.266       .  A
C33          O39   1.261       .  A
C33        C4869   1.478       .  S
C37        C4909   1.478       .  S
In40         O42   2.245       .  S
In40         O43   2.256       .  S
In40         O51   2.243       .  S
In40         O45   2.286       .  S
In40         O47   2.279       .  S
In40         O48   2.234       .  S
In40         O49   2.218       .  S
In40         O52   2.243       .  S
C41          O47   1.269       .  A
C41          O49   1.259       .  A
C41        C4849   1.480       .  S
O42          C50   1.262       .  A
O43          C50   1.261       .  A
C44          O51   1.259       .  A
C44          O45   1.265       .  A
C44        C5029   1.493       .  S
C46          O48   1.263       .  A
C46          O52   1.262       .  A
C46        C4838   1.482       .  S
C50        C4918   1.479       .  S
In53         O55   2.232       .  S
In53         O56   2.247   1_554  S
In53         O64   2.240   1_554  S
In53         O58   2.274       .  S
In53         O60   2.277       .  S
In53         O61   2.246       .  S
In53         O62   2.208       .  S
In53         O65   2.247       .  S
C54          O60   1.272       .  A
C54          O62   1.259       .  A
C54        C4809   1.479       .  S
O55          C63   1.264   1_554  A
O56          C63   1.268       .  A
C57          O64   1.262       .  A
C57          O58   1.269   1_556  A
C57        C4898   1.494       .  S
C59          O61   1.266       .  A
C59          O65   1.262       .  A
C59        C4769   1.483       .  S
C63        C4789   1.490       .  S
In66         O68   2.225       .  S
In66         O69   2.253       .  S
In66         O77   2.223       .  S
In66         O71   2.256       .  S
In66         O73   2.251       .  S
In66         O74   2.262       .  S
In66         O75   2.219       .  S
In66         O78   2.222       .  S
C67          O73   1.270       .  A
C67          O75   1.262       .  A
C67        C4749   1.481       .  S
O68          C76   1.262       .  A
O69          C76   1.269       .  A
C70          O77   1.263       .  A
C70          O71   1.268       .  A
C70        C4738   1.483       .  S
C72          O74   1.269       .  A
C72          O78   1.262       .  A
C72        C4709   1.495       .  S
C76        C4798   1.490       .  S
In79         O81   2.228       .  S
In79         O82   2.243       .  S
In79         O90   2.224       .  S
In79         O84   2.271       .  S
In79         O86   2.276       .  S
In79         O87   2.245       .  S
In79         O88   2.214       .  S
In79         O91   2.221       .  S
C80          O86   1.272       .  A
C80          O88   1.260       .  A
C80        C4689   1.489       .  S
O81          C89   1.263       .  A
O82          C89   1.267       .  A
C83          O90   1.262       .  A
C83          O84   1.270       .  A
C83        C4729   1.491       .  S
C85          O87   1.267       .  A
C85          O91   1.263       .  A
C85        C4658   1.485       .  S
C89        C4678   1.488       .  S
In92         O94   2.226       .  S
In92         O95   2.251       .  S
In92        O103   2.242       .  S
In92         O97   2.263       .  S
In92         O99   2.266       .  S
In92        O100   2.258       .  S
In92        O101   2.211       .  S
In92        O104   2.217       .  S
C93          O99   1.269       .  A
C93         O101   1.261       .  A
C93        C4638   1.472       .  S
O94         C102   1.261       .  A
O95         C102   1.266       .  A
C96         O103   1.261       .  A
C96          O97   1.266       .  A
C96        C4978   1.492       .  S
C98         O100   1.267       .  A
C98         O104   1.261       .  A
C98        C4609   1.484       .  S
C102       C4669   1.491       .  S
In105       O107   2.241       .  S
In105       O108   2.241       .  S
In105       O116   2.242       .  S
In105       O110   2.279       .  S
In105       O112   2.281       .  S
In105       O113   2.249       .  S
In105       O114   2.227       .  S
In105       O117   2.246       .  S
C106        O112   1.268       .  A
C106        O114   1.257       .  A
C106       C4589   1.482       .  S
O107        C115   1.263       .  A
O108        C115   1.265       .  A
C109        O116   1.261       .  A
C109        O110   1.266       .  A
C109       C4549   1.496       .  S
C111        O113   1.263       .  A
C111        O117   1.261       .  A
C111       C4529   1.480       .  S
C115       C4569   1.478       .  S
In118       O120   2.230       .  S
In118       O121   2.254       .  S
In118       O129   2.234       .  S
In118       O123   2.253       .  S
In118       O125   2.268       .  S
In118       O126   2.236       .  S
In118       O127   2.206       .  S
In118       O130   2.229       .  S
C119        O125   1.268       .  A
C119        O127   1.258       .  A
C119       C4618   1.469       .  S
O120        C128   1.260       .  A
O121        C128   1.264       .  A
C122        O129   1.260       .  A
C122        O123   1.265       .  A
C122       C4509   1.502       .  S
C124        O126   1.266       .  A
C124        O130   1.263       .  A
C124       C4489   1.481       .  S
C128       C4578   1.472       .  S
In131       O133   2.222       .  S
In131       O134   2.264       .  S
In131       O142   2.224       .  S
In131       O136   2.248       .  S
In131       O138   2.263       .  S
In131       O139   2.264       .  S
In131       O140   2.190       .  S
In131       O143   2.243       .  S
C132        O138   1.269       .  A
C132        O140   1.258       .  A
C132       C4469   1.489       .  S
O133        C141   1.261       .  A
O134        C141   1.269       .  A
C135        O142   1.264       .  A
C135        O136   1.266       .  A
C135       C4518   1.473       .  S
C137        O139   1.268       .  A
C137        O143   1.262       .  A
C137       C4438   1.484       .  S
C141       C4449   1.488       .  S
In144       O146   2.222       .  S
In144       O147   2.248       .  S
In144       O155   2.232       .  S
In144       O149   2.275       .  S
In144       O151   2.274       .  S
In144       O152   2.240       .  S
In144       O153   2.210       .  S
In144       O156   2.241       .  S
C145        O151   1.271       .  A
C145        O153   1.259       .  A
C145       C4418   1.479       .  S
O146        C154   1.263       .  A
O147        C154   1.267       .  A
C148        O155   1.261       .  A
C148        O149   1.268       .  A
C148       C4389   1.493       .  S
C150        O152   1.265       .  A
C150        O156   1.262       .  A
C150       C4369   1.475       .  S
C154       C4458   1.490       .  S
In157       O159   2.240       .  S
In157       O160   2.262       .  S
In157       O168   2.249       .  S
In157       O162   2.273       .  S
In157       O164   2.272       .  S
In157       O165   2.251       .  S
In157       O166   2.214       .  S
In157       O169   2.234       .  S
C158        O164   1.269       .  A
C158        O166   1.259       .  A
C158       C4349   1.474       .  S
O159        C167   1.262       .  A
O160        C167   1.266       .  A
C161        O168   1.262       .  A
C161        O162   1.267       .  A
C161       C4558   1.498       .  S
C163        O165   1.266       .  A
C163        O169   1.262       .  A
C163       C5078   1.484       .  S
C167       C4329   1.486       .  S
In170       O172   2.249       .  S
In170       O173   2.252       .  S
In170       O181   2.234       .  S
In170       O175   2.267       .  S
In170       O177   2.273       .  S
In170       O178   2.246       .  S
In170       O179   2.203       .  S
In170       O182   2.255       .  S
C171        O177   1.267       .  A
C171        O179   1.258       .  A
C171       C4318   1.470       .  S
O172        C180   1.261       .  A
O173        C180   1.262       .  A
C174        O181   1.260       .  A
C174        O175   1.264       .  A
C174       C4289   1.485       .  S
C176        O178   1.264       .  A
C176        O182   1.262       .  A
C176       C4278   1.490       .  S
C180       C4338   1.476       .  S
In183       O185   2.219       .  S
In183       O186   2.244       .  S
In183       O194   2.224       .  S
In183       O188   2.268       .  S
In183       O190   2.266       .  S
In183       O191   2.249       .  S
In183       O192   2.214       .  S
In183       O195   2.222       .  S
C184        O190   1.272       .  A
C184        O192   1.261       .  A
C184       C4249   1.479       .  S
O185        C193   1.262       .  A
O186        C193   1.269       .  A
C187        O194   1.264       .  A
C187        O188   1.270       .  A
C187       C4398   1.489       .  S
C189        O191   1.268       .  A
C189        O195   1.264       .  A
C189       C4218   1.486       .  S
C193       C4229   1.500       .  S
In196       O198   2.241       .  S
In196       O199   2.254       .  S
In196       O207   2.231       .  S
In196       O201   2.260       .  S
In196       O203   2.268       .  S
In196       O204   2.265       .  S
In196       O205   2.215       .  S
In196       O208   2.244       .  S
C197        O203   1.267       .  A
C197        O205   1.259       .  A
C197       C4189   1.475       .  S
O198        C206   1.261       .  A
O199        C206   1.266       .  A
C200        O207   1.262       .  A
C200        O201   1.266       .  A
C200       C4298   1.488       .  S
C202        O204   1.266       .  A
C202        O208   1.261       .  A
C202       C4169   1.493       .  S
C206       C4238   1.499       .  S
In209       O211   2.246       .  S
In209       O212   2.264       .  S
In209       O220   2.248       .  S
In209       O214   2.259       .  S
In209       O216   2.277       .  S
In209       O217   2.259       .  S
In209       O218   2.215       .  S
In209       O221   2.253       .  S
C210        O216   1.266       .  A
C210        O218   1.258       .  A
C210       C4158   1.473       .  S
O211        C219   1.260       .  A
O212        C219   1.264       .  A
C213        O220   1.262       .  A
C213        O214   1.264       .  A
C213       C4118   1.484       .  S
C215        O217   1.265       .  A
C215        O221   1.262       .  A
C215       C4089   1.490       .  S
C219       C4129   1.479       .  S
In222       O224   2.236       .  S
In222       O225   2.255   1_655  S
In222       O233   2.237   1_655  S
In222       O227   2.285       .  S
In222       O229   2.271       .  S
In222       O230   2.253       .  S
In222       O231   2.205       .  S
In222       O234   2.251       .  S
C223        O229   1.271       .  A
C223        O231   1.258       .  A
C223       C4069   1.473       .  S
O224        C232   1.263       .  A
O225        C232   1.267   1_455  A
C226        O233   1.261       .  A
C226        O227   1.268   1_455  A
C226       C4049   1.503       .  S
C228        O230   1.266       .  A
C228        O234   1.263       .  A
C228       C4038   1.497       .  S
C232       C4138   1.484   1_655  S
In235       O237   2.237       .  S
In235       O238   2.241       .  S
In235       O246   2.225       .  S
In235       O240   2.270       .  S
In235       O242   2.271       .  S
In235       O243   2.239       .  S
In235       O244   2.201       .  S
In235       O247   2.223       .  S
C236        O242   1.272       .  A
C236        O244   1.259       .  A
C236       C4009   1.483       .  S
O237        C245   1.263       .  A
O238        C245   1.266       .  A
C239        O246   1.263       .  A
C239        O240   1.270       .  A
C239       C3978   1.491       .  S
C241        O243   1.268       .  A
C241        O247   1.264       .  A
C241       C4938   1.477       .  S
C245       C3989   1.492       .  S
In248       O250   2.236       .  S
In248       O251   2.247       .  S
In248       O259   2.236       .  S
In248       O253   2.267       .  S
In248       O255   2.280       .  S
In248       O256   2.266       .  S
In248       O257   2.218       .  S
In248       O260   2.241       .  S
C249        O255   1.267       .  A
C249        O257   1.258       .  A
C249       C3949   1.482       .  S
O250        C258   1.262       .  A
O251        C258   1.265       .  A
C252        O259   1.262       .  A
C252        O253   1.267       .  A
C252       C4109   1.494       .  S
C254        O256   1.265       .  A
C254        O260   1.260       .  A
C254       C3929   1.479       .  S
C258       C3998   1.503       .  S
In261       O263   2.235       .  S
In261       O264   2.247       .  S
In261       O272   2.236       .  S
In261       O266   2.265       .  S
In261       O268   2.272       .  S
In261       O269   2.247       .  S
In261       O270   2.205       .  S
In261       O273   2.250       .  S
C262        O268   1.268       .  A
C262        O270   1.258       .  A
C262       C3909   1.473       .  S
O263        C271   1.263       .  A
O264        C271   1.265       .  A
C265        O272   1.261       .  A
C265        O266   1.266       .  A
C265       C3969   1.487       .  S
C267        O269   1.263       .  A
C267        O273   1.261       .  A
C267       C3869   1.480       .  S
C271       C3889   1.487       .  S
In274       O276   2.223   1_655  S
In274       O277   2.264   1_655  S
In274       O285   2.231   1_655  S
In274       O279   2.257       .  S
In274       O281   2.271       .  S
In274       O282   2.245   1_655  S
In274       O283   2.211       .  S
In274       O286   2.231       .  S
C275        O281   1.270       .  A
C275        O283   1.259       .  A
C275       C5009   1.494       .  S
O276        C284   1.261       .  A
O277        C284   1.268       .  A
C278        O285   1.264       .  A
C278        O279   1.268   1_455  A
C278       C3858   1.492       .  S
C280        O282   1.269   1_655  A
C280        O286   1.264       .  A
C280       C4358   1.481       .  S
C284       C3898   1.487       .  S
In287       O289   2.198       .  S
In287       O290   2.247       .  S
In287       O298   2.228       .  S
In287       O292   2.259       .  S
In287       O294   2.263       .  S
In287       O295   2.247       .  S
In287       O296   2.221       .  S
In287       O299   2.224       .  S
C288        O294   1.270       .  A
C288        O296   1.262       .  A
C288       C3829   1.478       .  S
O289        C297   1.261       .  A
O290        C297   1.267       .  A
C291        O298   1.261       .  A
C291        O292   1.268       .  A
C291       C3849   1.487       .  S
C293        O295   1.267       .  A
C293        O299   1.262       .  A
C293       C3798   1.482       .  S
C297       C3809   1.488       .  S
In300       O302   2.224       .  S
In300       O303   2.241       .  S
In300       O311   2.233       .  S
In300       O305   2.272       .  S
In300       O307   2.270       .  S
In300       O308   2.260       .  S
In300       O309   2.226       .  S
In300       O312   2.214       .  S
C301        O307   1.273       .  A
C301        O309   1.263       .  A
C301       C4178   1.485       .  S
O302        C310   1.264       .  A
O303        C310   1.270       .  A
C304        O311   1.264       .  A
C304        O305   1.271       .  A
C304       C4058   1.492       .  S
C306        O308   1.270       .  A
C306        O312   1.262       .  A
C306       C3778   1.498       .  S
C310       C3818   1.495       .  S
In313       O315   2.218       .  S
In313       O316   2.255       .  S
In313       O324   2.228       .  S
In313       O318   2.273       .  S
In313       O320   2.258       .  S
In313       O321   2.253       .  S
In313       O322   2.210       .  S
In313       O325   2.224       .  S
C314        O320   1.272       .  A
C314        O322   1.262       .  A
C314       C3749   1.480       .  S
O315        C323   1.261       .  A
O316        C323   1.268       .  A
C317        O324   1.262       .  A
C317        O318   1.268       .  A
C317       C3709   1.490       .  S
C319        O321   1.268       .  A
C319        O325   1.262       .  A
C319       C3698   1.487       .  S
C323       C3738   1.498       .  S
In326       O328   2.221       .  S
In326       O329   2.262       .  S
In326       O337   2.216       .  S
In326       O331   2.251       .  S
In326       O333   2.252       .  S
In326       O334   2.250       .  S
In326       O335   2.204       .  S
In326       O338   2.235       .  S
C327        O333   1.273       .  A
C327        O335   1.263       .  A
C327       C4378   1.477       .  S
O328        C336   1.263       .  A
O329        C336   1.271       .  A
C330        O337   1.264       .  A
C330        O331   1.271       .  A
C330       C3669   1.486       .  S
C332        O334   1.270       .  A
C332        O338   1.263       .  A
C332       C3649   1.505       .  S
C336       C3729   1.498       .  S
In339       O341   2.247       .  S
In339       O342   2.248       .  S
In339       O350   2.239       .  S
In339       O344   2.268       .  S
In339       O346   2.278       .  S
In339       O347   2.251       .  S
In339       O348   2.212       .  S
In339       O351   2.236       .  S
C340        O346   1.269       .  A
C340        O348   1.258       .  A
C340       C3638   1.475       .  S
O341        C349   1.262       .  A
O342        C349   1.264       .  A
C343        O350   1.261       .  A
C343        O344   1.266       .  A
C343       C3589   1.492       .  S
C345        O347   1.265       .  A
C345        O351   1.262       .  A
C345       C4149   1.489       .  S
C349       C3609   1.480       .  S
In352       O354   2.236       .  S
In352       O355   2.249       .  S
In352       O363   2.248       .  S
In352       O357   2.263       .  S
In352       O359   2.281       .  S
In352       O360   2.243       .  S
In352       O361   2.213       .  S
In352       O364   2.236       .  S
C353        O359   1.269       .  A
C353        O361   1.257       .  A
C353       C3569   1.476       .  S
O354        C362   1.259       .  A
O355        C362   1.264       .  A
C356        O363   1.262       .  A
C356        O357   1.266       .  A
C356       C3549   1.507       .  S
C358        O360   1.266       .  A
C358        O364   1.265       .  A
C358       C3538   1.481       .  S
C362       C3618   1.472       .  S
In365       O367   2.236       .  S
In365       O368   2.245       .  S
In365       O376   2.224       .  S
In365       O370   2.270       .  S
In365       O372   2.266       .  S
In365       O373   2.242       .  S
In365       O374   2.211       .  S
In365       O377   2.226       .  S
C366        O372   1.269       .  A
C366        O374   1.259       .  A
C366       C3509   1.473       .  S
O367        C375   1.263       .  A
O368        C375   1.265       .  A
C369        O376   1.260       .  A
C369        O370   1.267       .  A
C369       C3598   1.489       .  S
C371        O373   1.266       .  A
C371        O377   1.262       .  A
C371       C3469   1.482       .  S
C375       C3489   1.483       .  S
In378       O380   2.241       .  S
In378       O381   2.264       .  S
In378       O389   2.252       .  S
In378       O383   2.275       .  S
In378       O385   2.281       .  S
In378       O386   2.240       .  S
In378       O387   2.212       .  S
In378       O390   2.251       .  S
C379        O385   1.268       .  A
C379        O387   1.258       .  A
C379       C3769   1.480       .  S
O380        C388   1.261       .  A
O381        C388   1.262       .  A
C382        O389   1.260       .  A
C382        O383   1.264       .  A
C382       C3718   1.496       .  S
C384        O386   1.263       .  A
C384        O390   1.262       .  A
C384       C4198   1.483       .  S
C388       C3498   1.480       .  S
In391       O393   2.237       .  S
In391       O394   2.251       .  S
In391       O402   2.234       .  S
In391       O396   2.271       .  S
In391       O398   2.260       .  S
In391       O399   2.251       .  S
In391       O400   2.205       .  S
In391       O403   2.226       .  S
C392        O398   1.272       .  A
C392        O400   1.260       .  A
C392       C3449   1.471       .  S
O393        C401   1.264       .  A
O394        C401   1.269       .  A
C395        O402   1.263       .  A
C395        O396   1.268       .  A
C395       C3558   1.492       .  S
C397        O399   1.269       .  A
C397        O403   1.262       .  A
C397       C3409   1.485       .  S
C401       C3429   1.490       .  S
In404       O406   2.253       .  S
In404       O407   2.266       .  S
In404       O415   2.241       .  S
In404       O409   2.280       .  S
In404       O411   2.273       .  S
In404       O412   2.250       .  S
In404       O413   2.222       .  S
In404       O416   2.250       .  S
C405        O411   1.268       .  A
C405        O413   1.259       .  A
C405       C3398   1.480       .  S
O406        C414   1.261       .  A
O407        C414   1.263       .  A
C408        O415   1.260       .  A
C408        O409   1.265       .  A
C408       C3678   1.490       .  S
C410        O412   1.264       .  A
C410        O416   1.262       .  A
C410       C3369   1.489       .  S
C414       C3438   1.484       .  S
In417       O419   2.240       .  S
In417       O420   2.251       .  S
In417       O428   2.240       .  S
In417       O422   2.260       .  S
In417       O424   2.277       .  S
In417       O425   2.239       .  S
In417       O426   2.216       .  S
In417       O429   2.236       .  S
C418        O424   1.266       .  A
C418        O426   1.257       .  A
C418       C3689   1.473       .  S
O419        C427   1.260       .  A
O420        C427   1.261       .  A
C421        O428   1.261       .  A
C421        O422   1.264       .  A
C421       C3329   1.492       .  S
C423        O425   1.264       .  A
C423        O429   1.263       .  A
C423       C3309   1.480       .  S
C427       C3349   1.472       .  S
In430       O432   2.237       .  S
In430       O433   2.250       .  S
In430       O441   2.247       .  S
In430       O435   2.259       .  S
In430       O437   2.275       .  S
In430       O438   2.252       .  S
In430       O439   2.221       .  S
In430       O442   2.245       .  S
C431        O437   1.266       .  A
C431        O439   1.257       .  A
C431       C3289   1.476       .  S
O432        C440   1.262       .  A
O433        C440   1.265       .  A
C434        O441   1.262       .  A
C434        O435   1.265       .  A
C434       C3278   1.492       .  S
C436        O438   1.263       .  A
C436        O442   1.260       .  A
C436       C4478   1.475       .  S
C440       C3358   1.479       .  S
In443       O445   2.236       .  S
In443       O446   2.256       .  S
In443       O454   2.240       .  S
In443       O448   2.265       .  S
In443       O450   2.272       .  S
In443       O451   2.250       .  S
In443       O452   2.213       .  S
In443       O455   2.230       .  S
C444        O450   1.268       .  A
C444        O452   1.259       .  A
C444       C3249   1.473       .  S
O445        C453   1.261       .  A
O446        C453   1.265       .  A
C447        O454   1.261       .  A
C447        O448   1.266       .  A
C447       C3209   1.497       .  S
C449        O451   1.266       .  A
C449        O455   1.261       .  A
C449       C4858   1.490       .  S
C453       C3229   1.480       .  S
In456       O458   2.243       .  S
In456       O459   2.261       .  S
In456       O467   2.231       .  S
In456       O461   2.255       .  S
In456       O463   2.271       .  S
In456       O464   2.251       .  S
In456       O465   2.210       .  S
In456       O468   2.237       .  S
C457        O463   1.267       .  A
C457        O465   1.257       .  A
C457       C3189   1.471       .  S
O458        C466   1.260       .  A
O459        C466   1.265       .  A
C460        O467   1.263       .  A
C460        O461   1.265       .  A
C460       C3338   1.490       .  S
C462        O464   1.267       .  A
C462        O468   1.263       .  A
C462       C3169   1.482       .  S
C466       C3238   1.482       .  S
In469       O471   2.245       .  S
In469       O472   2.243       .  S
In469       O480   2.244       .  S
In469       O474   2.271       .  S
In469       O476   2.281       .  S
In469       O477   2.243       .  S
In469       O478   2.211       .  S
In469       O481   2.238       .  S
C470        O476   1.270       .  A
C470        O478   1.257       .  A
C470       C3149   1.475       .  S
O471        C479   1.263       .  A
O472        C479   1.265       .  A
C473        O480   1.262       .  A
C473        O474   1.267       .  A
C473       C3269   1.491       .  S
C475        O477   1.265       .  A
C475        O481   1.262       .  A
C475       C3518   1.479       .  S
C479       C3129   1.481       .  S
In482       O484   2.239       .  S
In482       O485   2.250       .  S
In482       O493   2.232       .  S
In482       O487   2.271       .  S
In482       O489   2.275       .  S
In482       O490   2.237       .  S
In482       O491   2.215       .  S
In482       O494   2.241       .  S
C483        O489   1.270       .  A
C483        O491   1.258       .  A
C483       C4209   1.477       .  S
O484        C492   1.261       .  A
O485        C492   1.263       .  A
C486        O493   1.261       .  A
C486        O487   1.267       .  A
C486       C3109   1.484       .  S
C488        O490   1.264       .  A
C488        O494   1.263       .  A
C488       C3089   1.499       .  S
C492       C3138   1.476       .  S
In495       O497   2.228       .  S
In495       O498   2.238       .  S
In495       O506   2.228       .  S
In495       O500   2.273       .  S
In495       O502   2.270       .  S
In495       O503   2.247       .  S
In495       O504   2.203       .  S
In495       O507   2.231       .  S
C496        O502   1.272       .  A
C496        O504   1.260       .  A
C496       C3078   1.475       .  S
O497        C505   1.264       .  A
O498        C505   1.267       .  A
C499        O506   1.262       .  A
C499        O500   1.270       .  A
C499       C3218   1.489       .  S
C501        O503   1.267       .  A
C501        O507   1.263       .  A
C501       C3029   1.480       .  S
C505       C3058   1.490       .  S
In508       O510   2.240       .  S
In508       O511   2.241       .  S
In508       O519   2.223       .  S
In508       O513   2.252       .  S
In508       O515   2.258       .  S
In508       O516   2.258       .  S
In508       O517   2.208       .  S
In508       O520   2.230       .  S
C509        O515   1.269       .  A
C509        O517   1.260       .  A
C509       C4778   1.477       .  S
O510        C518   1.263       .  A
O511        C518   1.268       .  A
C512        O519   1.263       .  A
C512        O513   1.267       .  A
C512       C3118   1.489       .  S
C514        O516   1.267       .  A
C514        O520   1.261       .  A
C514       C3009   1.483       .  S
C518       C3049   1.491       .  S
In521       O523   2.229       .  S
In521       O524   2.250       .  S
In521       O532   2.219       .  S
In521       O526   2.279       .  S
In521       O528   2.266       .  S
In521       O529   2.236       .  S
In521       O530   2.206       .  S
In521       O533   2.239       .  S
C522        O528   1.270       .  A
C522        O530   1.259       .  A
C522       C3789   1.471       .  S
O523        C531   1.262       .  A
O524        C531   1.265       .  A
C525        O532   1.260       .  A
C525        O526   1.267       .  A
C525       C2969   1.489       .  S
C527        O529   1.264       .  A
C527        O533   1.263       .  A
C527       C2958   1.483       .  S
C531       C2989   1.486       .  S
In534       O536   2.252       .  S
In534       O537   2.259       .  S
In534       O545   2.251       .  S
In534       O539   2.262       .  S
In534       O541   2.274       .  S
In534       O542   2.253       .  S
In534       O543   2.215       .  S
In534       O546   2.242       .  S
C535        O541   1.265       .  A
C535        O543   1.259       .  A
C535       C3098   1.476       .  S
O536        C544   1.261       .  A
O537        C544   1.262       .  A
C538        O545   1.260       .  A
C538        O539   1.262       .  A
C538       C2929   1.488       .  S
C540        O542   1.263       .  A
C540        O546   1.261       .  A
C540       C4258   1.483       .  S
C544       C2998   1.484       .  S
In547       O549   2.232       .  S
In547       O550   2.261       .  S
In547       O558   2.249       .  S
In547       O552   2.264       .  S
In547       O554   2.260       .  S
In547       O555   2.252       .  S
In547       O556   2.203       .  S
In547       O559   2.233       .  S
C548        O554   1.268       .  A
C548        O556   1.259       .  A
C548       C2909   1.466       .  S
O549        C557   1.262       .  A
O550        C557   1.266       .  A
C551        O558   1.262       .  A
C551        O552   1.264       .  A
C551       C2978   1.490       .  S
C553        O555   1.265       .  A
C553        O559   1.260       .  A
C553       C3069   1.483       .  S
C557       C2889   1.491       .  S
In560       O562   2.249       .  S
In560       O563   2.266   1_554  S
In560       O571   2.250   1_554  S
In560       O565   2.278       .  S
In560       O567   2.266       .  S
In560       O568   2.265   1_554  S
In560       O569   2.205       .  S
In560       O572   2.242       .  S
C561        O567   1.271       .  A
C561        O569   1.259       .  A
C561       C2869   1.485       .  S
O562        C570   1.261   1_554  A
O563        C570   1.267       .  A
C564        O571   1.263       .  A
C564        O565   1.267   1_556  A
C564       C2858   1.495       .  S
C566        O568   1.268   1_554  A
C566        O572   1.263       .  A
C566       C2829   1.495       .  S
C570       C2898   1.497       .  S
In573       O575   2.245       .  S
In573       O576   2.259       .  S
In573       O584   2.252       .  S
In573       O578   2.269       .  S
In573       O580   2.278       .  S
In573       O581   2.260       .  S
In573       O582   2.218       .  S
In573       O585   2.233       .  S
C574        O580   1.267       .  A
C574        O582   1.258       .  A
C574       C2818   1.477       .  S
O575        C583   1.260       .  A
O576        C583   1.264       .  A
C577        O584   1.262       .  A
C577        O578   1.265       .  A
C577       C2849   1.496       .  S
C579        O581   1.266       .  A
C579        O585   1.262       .  A
C579       C2769   1.493       .  S
C583       C2789   1.480       .  S
In586       O588   2.240       .  S
In586       O589   2.255       .  S
In586       O597   2.237       .  S
In586       O591   2.275       .  S
In586       O593   2.276       .  S
In586       O594   2.251       .  S
In586       O595   2.214       .  S
In586       O598   2.231       .  S
C587        O593   1.269       .  A
C587        O595   1.259       .  A
C587       C2749   1.476       .  S
O588        C596   1.261       .  A
O589        C596   1.264       .  A
C590        O597   1.261       .  A
C590        O591   1.267       .  A
C590       C2738   1.499       .  S
C592        O594   1.265       .  A
C592        O598   1.262       .  A
C592       C2718   1.495       .  S
C596       C2798   1.479       .  S
In599       O601   2.208       .  S
In599       O602   2.236       .  S
In599       O610   2.226       .  S
In599       O604   2.261       .  S
In599       O606   2.266       .  S
In599       O607   2.229       .  S
In599       O608   2.205       .  S
In599       O611   2.224       .  S
C600        O606   1.272       .  A
C600        O608   1.258       .  A
C600       C2698   1.478       .  S
O601        C609   1.261       .  A
O602        C609   1.267       .  A
C603        O610   1.264       .  A
C603        O604   1.270       .  A
C603       C2938   1.488       .  S
C605        O607   1.267       .  A
C605        O611   1.264       .  A
C605       C3918   1.474       .  S
C609       C2669   1.489       .  S
In612       O614   2.218       .  S
In612       O615   2.249   1_554  S
In612       O623   2.244   1_554  S
In612       O617   2.268       .  S
In612       O619   2.270       .  S
In612       O620   2.254   1_554  S
In612       O621   2.213       .  S
In612       O624   2.230       .  S
C613        O619   1.270       .  A
C613        O621   1.259       .  A
C613       C4269   1.474       .  S
O614        C622   1.261   1_554  A
O615        C622   1.266       .  A
C616        O623   1.262       .  A
C616        O617   1.267   1_556  A
C616       C2729   1.489       .  S
C618        O620   1.265   1_554  A
C618        O624   1.261       .  A
C618       C2649   1.480       .  S
C622       C2678   1.494       .  S
In625       O627   2.234       .  S
In625       O628   2.265       .  S
In625       O636   2.247       .  S
In625       O630   2.255       .  S
In625       O632   2.266       .  S
In625       O633   2.264       .  S
In625       O634   2.201       .  S
In625       O637   2.228       .  S
C626        O632   1.268       .  A
C626        O634   1.258       .  A
C626       C2629   1.478       .  S
O627        C635   1.260       .  A
O628        C635   1.267       .  A
C629        O636   1.265       .  A
C629        O630   1.265       .  A
C629       C2589   1.490       .  S
C631        O633   1.268       .  A
C631        O637   1.261       .  A
C631       C2569   1.484       .  S
C635       C2609   1.498       .  S
In638       O640   2.221       .  S
In638       O641   2.244       .  S
In638       O649   2.235       .  S
In638       O643   2.267       .  S
In638       O645   2.269       .  S
In638       O646   2.258       .  S
In638       O647   2.209       .  S
In638       O650   2.229       .  S
C639        O645   1.272       .  A
C639        O647   1.260       .  A
C639       C4098   1.480       .  S
O640        C648   1.262       .  A
O641        C648   1.269       .  A
C642        O649   1.264       .  A
C642        O643   1.270       .  A
C642       C2558   1.493   1_565  S
C644        O646   1.269       .  A
C644        O650   1.263       .  A
C644       C3629   1.491       .  S
C648       C2618   1.500       .  S
In651       O653   2.213       .  S
In651       O654   2.258       .  S
In651       O662   2.230       .  S
In651       O656   2.276       .  S
In651       O658   2.267       .  S
In651       O659   2.250       .  S
In651       O660   2.201       .  S
In651       O663   2.236       .  S
C652        O658   1.272       .  A
C652        O660   1.260       .  A
C652       C4878   1.478       .  S
O653        C661   1.261       .  A
O654        C661   1.268       .  A
C655        O662   1.262       .  A
C655        O656   1.269       .  A
C655       C2598   1.495       .  S
C657        O659   1.267       .  A
C657        O663   1.262       .  A
C657       C4018   1.478       .  S
C661       C2529   1.498       .  S
In664       O666   2.229       .  S
In664       O667   2.228       .  S
In664       O675   2.235       .  S
In664       O669   2.270       .  S
In664       O671   2.270       .  S
In664       O672   2.254       .  S
In664       O673   2.212       .  S
In664       O676   2.215       .  S
C665        O671   1.273       .  A
C665        O673   1.261       .  A
C665       C2509   1.484       .  S
O666        C674   1.264       .  A
O667        C674   1.268       .  A
C668        O675   1.263       .  A
C668        O669   1.270       .  A
C668       C2498   1.491       .  S
C670        O672   1.268       .  A
C670        O676   1.262       .  A
C670       C3198   1.489       .  S
C674       C2538   1.486       .  S
In677       O679   2.233       .  S
In677       O680   2.249       .  S
In677       O688   2.250       .  S
In677       O682   2.264       .  S
In677       O684   2.282       .  S
In677       O685   2.236       .  S
In677       O686   2.226       .  S
In677       O689   2.234       .  S
C678        O684   1.266       .  A
C678        O686   1.256       .  A
C678       C2469   1.477       .  S
O679        C687   1.262       .  A
O680        C687   1.263       .  A
C681        O688   1.262       .  A
C681        O682   1.265       .  A
C681       C2489   1.494       .  S
C683        O685   1.263       .  A
C683        O689   1.261       .  A
C683       C4758   1.471       .  S
C687       C2458   1.475       .  S
In690       O692   2.228       .  S
In690       O693   2.243       .  S
In690       O701   2.243       .  S
In690       O695   2.272       .  S
In690       O697   2.285       .  S
In690       O698   2.238       .  S
In690       O699   2.217       .  S
In690       O702   2.221       .  S
C691        O697   1.268       .  A
C691        O699   1.256       .  A
C691       C3038   1.480       .  S
O692        C700   1.263       .  A
O693        C700   1.264       .  A
C694        O701   1.261       .  A
C694        O695   1.266       .  A
C694       C2438   1.491       .  S
C696        O698   1.264       .  A
C696        O702   1.261       .  A
C696       C2918   1.476       .  S
C700       C2449   1.469       .  S
In703       O705   2.246       .  S
In703       O706   2.258       .  S
In703       O714   2.250       .  S
In703       O708   2.259       .  S
In703       O710   2.264       .  S
In703       O711   2.259       .  S
In703       O712   2.209       .  S
In703       O715   2.243       .  S
C704        O710   1.265       .  A
C704        O712   1.257       .  A
C704       C3418   1.466       .  S
O705        C713   1.262       .  A
O706        C713   1.264       .  A
C707        O714   1.262       .  A
C707        O708   1.263       .  A
C707       C2429   1.493       .  S
C709        O711   1.264       .  A
C709        O715   1.259       .  A
C709       C2398   1.488       .  S
C713       C2409   1.482       .  S
In716       O718   2.246       .  S
In716       O719   2.260       .  S
In716       O727   2.242       .  S
In716       O721   2.272       .  S
In716       O723   2.274       .  S
In716       O724   2.256       .  S
In716       O725   2.215       .  S
In716       O728   2.235       .  S
C717        O723   1.269       .  A
C717        O725   1.258       .  A
C717       C2778   1.476       .  S
O718        C726   1.261       .  A
O719        C726   1.265       .  A
C720        O727   1.262       .  A
C720        O721   1.266       .  A
C720       C2549   1.493       .  S
C722        O724   1.266       .  A
C722        O728   1.263       .  A
C722       C2378   1.495       .  S
C726       C2418   1.482       .  S
In729       O731   2.230       .  S
In729       O732   2.255       .  S
In729       O740   2.238       .  S
In729       O734   2.274       .  S
In729       O736   2.275       .  S
In729       O737   2.244       .  S
In729       O738   2.194       .  S
In729       O741   2.246       .  S
C730        O736   1.272       .  A
C730        O738   1.259       .  A
C730       C3178   1.477       .  S
O731        C739   1.263       .  A
O732        C739   1.267       .  A
C733        O740   1.262       .  A
C733        O734   1.268       .  A
C733       C2329   1.494       .  S
C735        O737   1.266       .  A
C735        O741   1.263       .  A
C735       C2518   1.482       .  S
C739       C2349   1.492       .  S
In742       O744   2.223       .  S
In742       O745   2.255       .  S
In742       O753   2.216       .  S
In742       O747   2.264       .  S
In742       O749   2.267       .  S
In742       O750   2.244       .  S
In742       O751   2.213       .  S
In742       O754   2.230       .  S
C743        O749   1.272       .  A
C743        O751   1.262       .  A
C743       C3938   1.496       .  S
O744        C752   1.263       .  A
O745        C752   1.269       .  A
C746        O753   1.263       .  A
C746        O747   1.271       .  A
C746       C2309   1.486       .  S
C748        O750   1.268       .  A
C748        O754   1.265       .  A
C748       C2289   1.495       .  S
C752       C2358   1.485       .  S
In755       O757   2.227       .  S
In755       O758   2.233       .  S
In755       O766   2.219       .  S
In755       O760   2.264       .  S
In755       O762   2.273       .  S
In755       O763   2.231       .  S
In755       O764   2.210       .  S
In755       O767   2.233       .  S
C756        O762   1.275       .  A
C756        O764   1.263       .  A
C756       C4429   1.494       .  S
O757        C765   1.265       .  A
O758        C765   1.270       .  A
C759        O766   1.264       .  A
C759        O760   1.274       .  A
C759       C2318   1.490       .  S
C761        O763   1.269       .  A
C761        O767   1.267       .  A
C761       C3298   1.484       .  S
C765       C2269   1.484       .  S
In768       O770   2.230       .  S
In768       O771   2.249       .  S
In768       O779   2.239       .  S
In768       O773   2.257       .  S
In768       O775   2.254       .  S
In768       O776   2.264       .  S
In768       O777   2.210       .  S
In768       O780   2.230       .  S
C769        O775   1.269       .  A
C769        O777   1.262       .  A
C769       C2249   1.473       .  S
O770        C778   1.262       .  A
O771        C778   1.267       .  A
C772        O779   1.261       .  A
C772        O773   1.266       .  A
C772       C2229   1.484       .  S
C774        O776   1.267       .  A
C774        O780   1.260       .  A
C774       C2209   1.496       .  S
C778       C2278   1.490       .  S
In781       O783   2.248       .  S
In781       O784   2.257       .  S
In781       O792   2.241       .  S
In781       O786   2.275       .  S
In781       O788   2.278       .  S
In781       O789   2.247       .  S
In781       O790   2.214       .  S
In781       O793   2.241       .  S
C782        O788   1.270       .  A
C782        O790   1.259       .  A
C782       C2198   1.479       .  S
O783        C791   1.263       .  A
O784        C791   1.265       .  A
C785        O792   1.262       .  A
C785        O786   1.268       .  A
C785       C2338   1.496       .  S
C787        O789   1.267       .  A
C787        O793   1.263       .  A
C787       C4078   1.489       .  S
C791       C2169   1.484       .  S
In794       O796   2.245       .  S
In794       O797   2.258       .  S
In794       O805   2.244       .  S
In794       O799   2.278       .  S
In794       O801   2.282       .  S
In794       O802   2.254       .  S
In794       O803   2.218       .  S
In794       O806   2.232       .  S
C795        O801   1.267       .  A
C795        O803   1.257       .  A
C795       C2578   1.478       .  S
O796        C804   1.263       .  A
O797        C804   1.265       .  A
C798        O805   1.261       .  A
C798        O799   1.267       .  A
C798       C2149   1.500       .  S
C800        O802   1.265       .  A
C800        O806   1.261       .  A
C800       C2129   1.480       .  S
C804       C2178   1.483       .  S
In807       O809   2.248       .  S
In807       O810   2.252       .  S
In807       O818   2.254       .  S
In807       O812   2.281       .  S
In807       O814   2.282       .  S
In807       O815   2.255       .  S
In807       O816   2.224       .  S
In807       O819   2.243       .  S
C808        O814   1.269       .  A
C808        O816   1.260       .  A
C808       C2118   1.486       .  S
O809        C817   1.262       .  A
O810        C817   1.263       .  A
C811        O818   1.260       .  A
C811        O812   1.266       .  A
C811       C2158   1.496       .  S
C813        O815   1.264       .  A
C813        O819   1.262       .  A
C813       C2078   1.491       .  S
C817       C2089   1.483       .  S
In820       O822   2.238       .  S
In820       O823   2.260       .  S
In820       O831   2.234       .  S
In820       O825   2.273       .  S
In820       O827   2.279       .  S
In820       O828   2.250       .  S
In820       O829   2.205       .  S
In820       O832   2.251       .  S
C821        O827   1.270       .  A
C821        O829   1.259       .  A
C821       C2058   1.477       .  S
O822        C830   1.263       .  A
O823        C830   1.267       .  A
C824        O831   1.261       .  A
C824        O825   1.267       .  A
C824       C2238   1.496       .  S
C826        O828   1.266       .  A
C826        O832   1.263       .  A
C826       C4598   1.489       .  S
C830       C2098   1.491       .  S
In833       O835   2.248       .  S
In833       O836   2.265       .  S
In833       O844   2.246       .  S
In833       O838   2.270       .  S
In833       O840   2.274       .  S
In833       O841   2.256       .  S
In833       O842   2.213       .  S
In833       O845   2.245       .  S
C834        O840   1.268       .  A
C834        O842   1.258       .  A
C834       C4649   1.475       .  S
O835        C843   1.260       .  A
O836        C843   1.265       .  A
C837        O844   1.262       .  A
C837        O838   1.266       .  A
C837       C2009   1.499       .  S
C839        O841   1.267       .  A
C839        O845   1.263       .  A
C839       C1989   1.491       .  S
C843       C2029   1.486       .  S
In846       O848   2.243       .  S
In846       O849   2.250       .  S
In846       O857   2.229       .  S
In846       O851   2.273       .  S
In846       O853   2.278       .  S
In846       O854   2.228       .  S
In846       O855   2.212       .  S
In846       O858   2.228       .  S
C847        O853   1.270       .  A
C847        O855   1.258       .  A
C847       C2069   1.477       .  S
O848        C856   1.262       .  A
O849        C856   1.263       .  A
C850        O857   1.260       .  A
C850        O851   1.268       .  A
C850       C1978   1.489       .  S
C852        O854   1.265       .  A
C852        O858   1.263       .  A
C852       C1949   1.479       .  S
C856       C2038   1.478       .  S
In859       O861   2.230       .  S
In859       O862   2.256       .  S
In859       O870   2.244   1_565  S
In859       O864   2.267       .  S
In859       O866   2.275       .  S
In859       O867   2.259       .  S
In859       O868   2.214       .  S
In859       O871   2.240       .  S
C860        O866   1.268       .  A
C860        O868   1.258       .  A
C860       C3018   1.475       .  S
O861        C869   1.263       .  A
O862        C869   1.266       .  A
C863        O870   1.263   1_565  A
C863        O864   1.266       .  A
C863       C1969   1.493   1_565  S
C865        O867   1.266       .  A
C865        O871   1.261       .  A
C865       C4818   1.486       .  S
C869       C1929   1.479       .  S
In872       O874   2.243       .  S
In872       O875   2.257       .  S
In872       O883   2.249       .  S
In872       O877   2.264       .  S
In872       O879   2.277       .  S
In872       O880   2.245       .  S
In872       O881   2.198       .  S
In872       O884   2.246       .  S
C873        O879   1.267       .  A
C873        O881   1.255       .  A
C873       C1909   1.467       .  S
O874        C882   1.263       .  A
O875        C882   1.264       .  A
C876        O883   1.263       .  A
C876        O877   1.265       .  A
C876       C1898   1.498       .  S
C878        O880   1.264       .  A
C878        O884   1.260       .  A
C878       C2878   1.476       .  S
C882       C1938   1.482       .  S
In885       O887   2.251       .  S
In885       O888   2.257       .  S
In885       O896   2.246       .  S
In885       O890   2.270       .  S
In885       O892   2.271       .  S
In885       O893   2.248       .  S
In885       O894   2.219       .  S
In885       O897   2.251       .  S
C886        O892   1.267       .  A
C886        O894   1.258       .  A
C886       C2949   1.473       .  S
O887        C895   1.263       .  A
O888        C895   1.264       .  A
C889        O896   1.262       .  A
C889        O890   1.265       .  A
C889       C1849   1.494       .  S
C891        O893   1.265       .  A
C891        O897   1.260       .  A
C891       C3838   1.486       .  S
C895       C1869   1.485       .  S
In898       O900   2.237       .  S
In898       O901   2.250       .  S
In898       O909   2.237       .  S
In898       O903   2.272       .  S
In898       O905   2.279       .  S
In898       O906   2.240       .  S
In898       O907   2.203       .  S
In898       O910   2.248       .  S
C899        O905   1.267       .  A
C899        O907   1.257       .  A
C899       C3478   1.471       .  S
O900        C908   1.261       .  A
O901        C908   1.262       .  A
C902        O909   1.260       .  A
C902        O903   1.265       .  A
C902       C1889   1.489       .  S
C904        O906   1.263       .  A
C904        O910   1.263       .  A
C904       C3158   1.484       .  S
C908       C1878   1.472       .  S
In911       O913   2.257       .  S
In911       O914   2.251       .  S
In911       O922   2.240       .  S
In911       O916   2.291       .  S
In911       O918   2.293       .  S
In911       O919   2.247       .  S
In911       O920   2.220       .  S
In911       O923   2.241       .  S
C912        O918   1.272       .  A
C912        O920   1.258       .  A
C912       C4029   1.487       .  S
O913        C921   1.263       .  A
O914        C921   1.264       .  A
C915        O922   1.261       .  A
C915        O916   1.270       .  A
C915       C2018   1.504   1_565  S
C917        O919   1.266       .  A
C917        O923   1.264       .  A
C917       C2189   1.493       .  S
C921       C1829   1.484       .  S
In924       O926   2.246       .  S
In924       O927   2.252       .  S
In924       O935   2.233       .  S
In924       O929   2.265       .  S
In924       O931   2.274       .  S
In924       O932   2.255       .  S
In924       O933   2.212       .  S
In924       O936   2.221       .  S
C925        O931   1.268       .  A
C925        O933   1.258       .  A
C925       C1818   1.473       .  S
O926        C934   1.263       .  A
O927        C934   1.264       .  A
C928        O935   1.261       .  A
C928        O929   1.266       .  A
C928       C1858   1.490       .  S
C930        O932   1.265       .  A
C930        O936   1.261       .  A
C930       C3578   1.486       .  S
C934       C1838   1.484       .  S
In937       O939   2.231       .  S
In937       O940   2.260       .  S
In937       O948   2.243       .  S
In937       O942   2.265       .  S
In937       O944   2.267       .  S
In937       O945   2.256       .  S
In937       O946   2.212       .  S
In937       O949   2.232       .  S
C938        O944   1.269       .  A
C938        O946   1.261       .  A
C938       C4718   1.478       .  S
O939        C947   1.260       .  A
O940        C947   1.266       .  A
C941        O948   1.262       .  A
C941        O942   1.266       .  A
C941       C1769   1.488       .  S
C943        O945   1.267       .  A
C943        O949   1.262       .  A
C943       C2478   1.493       .  S
C947       C1789   1.475       .  S
In950       O952   2.217       .  S
In950       O953   2.243       .  S
In950       O961   2.231       .  S
In950       O955   2.259       .  S
In950       O957   2.273       .  S
In950       O958   2.241       .  S
In950       O959   2.217       .  S
In950       O962   2.216       .  S
C951        O957   1.270       .  A
C951        O959   1.260       .  A
C951       C2838   1.480       .  S
O952        C960   1.261       .  A
O953        C960   1.266       .  A
C954        O961   1.261       .  A
C954        O955   1.268       .  A
C954       C1758   1.485       .  S
C956        O958   1.267       .  A
C956        O962   1.264       .  A
C956       C1918   1.482       .  S
C960       C1798   1.477       .  S
In963       O965   2.246       .  S
In963       O966   2.250       .  S
In963       O974   2.244       .  S
In963       O968   2.275       .  S
In963       O970   2.283       .  S
In963       O971   2.243       .  S
In963       O972   2.216       .  S
In963       O975   2.239       .  S
C964        O970   1.269       .  A
C964        O972   1.257       .  A
C964       C1729   1.477       .  S
O965        C973   1.263       .  A
O966        C973   1.263       .  A
C967        O974   1.262       .  A
C967        O968   1.267       .  A
C967       C1778   1.496       .  S
C969        O971   1.266       .  A
C969        O975   1.263       .  A
C969       C2758   1.482       .  S
C973       C1709   1.477       .  S
In976       O978   2.231       .  S
In976       O979   2.246       .  S
In976       O987   2.236       .  S
In976       O981   2.262       .  S
In976       O983   2.269       .  S
In976       O984   2.243       .  S
In976       O985   2.204       .  S
In976       O988   2.246       .  S
C977        O983   1.269       .  A
C977        O985   1.258       .  A
C977       C2389   1.470       .  S
O978        C986   1.263       .  A
O979        C986   1.265       .  A
C980        O987   1.261       .  A
C980        O981   1.265       .  A
C980       C1698   1.488       .  S
C982        O984   1.264       .  A
C982        O988   1.261       .  A
C982       C3458   1.483       .  S
C986       C1718   1.483       .  S
In989       O991   2.239       .  S
In989       O992   2.254       .  S
In989      O1000   2.221       .  S
In989       O994   2.258       .  S
In989       O996   2.267       .  S
In989       O997   2.255       .  S
In989       O998   2.214       .  S
In989      O1001   2.233       .  S
C990        O996   1.270       .  A
C990        O998   1.261       .  A
C990       C2218   1.477       .  S
O991        C999   1.262       .  A
O992        C999   1.267       .  A
C993       O1000   1.262       .  A
C993        O994   1.269       .  A
C993       C1689   1.481       .  S
C995        O997   1.268       .  A
C995       O1001   1.263       .  A
C995       C1649   1.498       .  S
C999       C1669   1.482       .  S
In1002     O1004   2.254       .  S
In1002     O1005   2.262       .  S
In1002     O1013   2.250       .  S
In1002     O1007   2.276       .  S
In1002     O1009   2.286       .  S
In1002     O1010   2.259       .  S
In1002     O1011   2.220       .  S
In1002     O1014   2.247       .  S
C1003      O1009   1.267       .  A
C1003      O1011   1.257       .  A
C1003      C3658   1.482       .  S
O1004      C1012   1.262       .  A
O1005      C1012   1.263       .  A
C1006      O1013   1.262       .  A
C1006      O1007   1.265       .  A
C1006      C1638   1.498       .  S
C1008      O1010   1.265       .  A
C1008      O1014   1.262       .  A
C1008      C4409   1.485       .  S
C1012      C1678   1.484       .  S
In1015     O1017   2.238       .  S
In1015     O1018   2.245       .  S
In1015     O1026   2.220       .  S
In1015     O1020   2.240       .  S
In1015     O1022   2.256       .  S
In1015     O1023   2.250       .  S
In1015     O1024   2.201       .  S
In1015     O1027   2.231       .  S
C1016      O1022   1.267       .  A
C1016      O1024   1.259       .  A
C1016      C4498   1.465       .  S
O1017      C1025   1.262       .  A
O1018      C1025   1.266       .  A
C1019      O1026   1.261       .  A
C1019      O1020   1.265       .  A
C1019      C1749   1.475       .  S
C1021      O1023   1.266       .  A
C1021      O1027   1.260       .  A
C1021      C4629   1.487       .  S
C1025      C1609   1.480       .  S
In1028     O1030   2.238       .  S
In1028     O1031   2.255       .  S
In1028     O1039   2.237       .  S
In1028     O1033   2.264       .  S
In1028     O1035   2.272       .  S
In1028     O1036   2.246       .  S
In1028     O1037   2.215       .  S
In1028     O1040   2.238       .  S
C1029      O1035   1.268       .  A
C1029      O1037   1.258       .  A
C1029      C1958   1.473       .  S
O1030      C1038   1.261       .  A
O1031      C1038   1.265       .  A
C1032      O1039   1.262       .  A
C1032      O1033   1.267       .  A
C1032      C1629   1.490       .  S
C1034      O1036   1.266       .  A
C1034      O1040   1.261       .  A
C1034      C2109   1.504       .  S
C1038      C1618   1.477       .  S
In1041     O1043   2.238       .  S
In1041     O1044   2.240       .  S
In1041     O1052   2.235       .  S
In1041     O1046   2.268       .  S
In1041     O1048   2.271       .  S
In1041     O1049   2.250       .  S
In1041     O1050   2.196       .  S
In1041     O1053   2.225       .  S
C1042      O1048   1.273       .  A
C1042      O1050   1.259       .  A
C1042      C4538   1.481       .  S
O1043      C1051   1.265       .  A
O1044      C1051   1.268       .  A
C1045      O1052   1.265       .  A
C1045      O1046   1.270       .  A
C1045      C1578   1.491       .  S
C1047      O1049   1.269       .  A
C1047      O1053   1.263       .  A
C1047      C2049   1.479       .  S
C1051      C1589   1.498       .  S
In1054     O1056   2.222       .  S
In1054     O1057   2.256       .  S
In1054     O1065   2.241       .  S
In1054     O1059   2.274       .  S
In1054     O1061   2.277       .  S
In1054     O1062   2.248       .  S
In1054     O1063   2.214       .  S
In1054     O1066   2.241       .  S
C1055      O1061   1.270       .  A
C1055      O1063   1.259       .  A
C1055      C1998   1.481       .  S
O1056      C1064   1.261       .  A
O1057      C1064   1.267       .  A
C1058      O1065   1.263       .  A
C1058      O1059   1.268       .  A
C1058      C1549   1.498       .  S
C1060      O1062   1.266       .  A
C1060      O1066   1.262       .  A
C1060      C4698   1.479       .  S
C1064      C1598   1.507       .  S
In1067     O1069   2.237       .  S
In1067     O1070   2.255       .  S
In1067     O1078   2.243       .  S
In1067     O1072   2.273       .  S
In1067     O1074   2.273       .  S
In1067     O1075   2.247       .  S
In1067     O1076   2.209       .  S
In1067     O1079   2.241       .  S
C1068      O1074   1.269       .  A
C1068      O1076   1.260       .  A
C1068      C2369   1.478       .  S
O1069      C1077   1.261       .  A
O1070      C1077   1.264       .  A
C1071      O1078   1.260       .  A
C1071      O1072   1.266       .  A
C1071      C1509   1.492       .  S
C1073      O1075   1.264       .  A
C1073      O1079   1.262       .  A
C1073      C2809   1.485       .  S
C1077      C1529   1.476       .  S
In1080     O1082   2.230       .  S
In1080     O1083   2.248       .  S
In1080     O1091   2.229       .  S
In1080     O1085   2.274       .  S
In1080     O1087   2.264       .  S
In1080     O1088   2.257       .  S
In1080     O1089   2.209       .  S
In1080     O1092   2.236       .  S
C1081      O1087   1.270       .  A
C1081      O1089   1.260       .  A
C1081      C1489   1.472       .  S
O1082      C1090   1.262       .  A
O1083      C1090   1.267       .  A
C1084      O1091   1.261       .  A
C1084      O1085   1.267       .  A
C1084      C1469   1.490       .  S
C1086      O1088   1.265       .  A
C1086      O1092   1.262       .  A
C1086      C3389   1.501       .  S
C1090      C1538   1.485       .  S
In1093     O1095   2.246       .  S
In1093     O1096   2.240   1_655  S
In1093     O1104   2.235   1_655  S
In1093     O1098   2.260       .  S
In1093     O1100   2.278       .  S
In1093     O1101   2.245       .  S
In1093     O1102   2.212       .  S
In1093     O1105   2.241       .  S
C1094      O1100   1.268       .  A
C1094      O1102   1.257       .  A
C1094      C4958   1.473       .  S
O1095      C1103   1.262   1_655  A
O1096      C1103   1.263       .  A
C1097      O1104   1.262       .  A
C1097      O1098   1.267   1_455  A
C1097      C1518   1.492       .  S
C1099      O1101   1.265       .  A
C1099      O1105   1.262       .  A
C1099      C1429   1.481       .  S
C1103      C1449   1.499       .  S
In1106     O1108   2.224       .  S
In1106     O1109   2.239       .  S
In1106     O1117   2.226       .  S
In1106     O1111   2.265       .  S
In1106     O1113   2.272       .  S
In1106     O1114   2.252       .  S
In1106     O1115   2.209       .  S
In1106     O1118   2.217       .  S
C1107      O1113   1.271       .  A
C1107      O1115   1.261       .  A
C1107      C2658   1.483       .  S
O1108      C1116   1.262       .  A
O1109      C1116   1.267       .  A
C1110      O1117   1.263       .  A
C1110      O1111   1.270       .  A
C1110      C1558   1.489       .  S
C1112      O1114   1.268       .  A
C1112      O1118   1.263       .  A
C1112      C4309   1.485       .  S
C1116      C1458   1.491       .  S
In1119     O1121   2.225       .  S
In1119     O1122   2.242   1_655  S
In1119     O1130   2.244   1_655  S
In1119     O1124   2.261       .  S
In1119     O1126   2.277       .  S
In1119     O1127   2.240       .  S
In1119     O1128   2.204       .  S
In1119     O1131   2.241       .  S
C1120      O1126   1.269       .  A
C1120      O1128   1.256       .  A
C1120      C2138   1.472       .  S
O1121      C1129   1.263   1_655  A
O1122      C1129   1.265       .  A
C1123      O1130   1.262       .  A
C1123      O1124   1.266   1_455  A
C1123      C1478   1.491       .  S
C1125      O1127   1.263       .  A
C1125      O1131   1.261       .  A
C1125      C2638   1.470       .  S
C1129      C1409   1.474       .  S
In1132     O1134   2.240       .  S
In1132     O1135   2.246       .  S
In1132     O1143   2.260       .  S
In1132     O1137   2.281       .  S
In1132     O1139   2.287       .  S
In1132     O1140   2.248       .  S
In1132     O1141   2.223       .  S
In1132     O1144   2.234       .  S
C1133      O1139   1.269       .  A
C1133      O1141   1.256       .  A
C1133      C3529   1.481       .  S
O1134      C1142   1.263       .  A
O1135      C1142   1.264       .  A
C1136      O1143   1.262       .  A
C1136      O1137   1.266       .  A
C1136      C1569   1.504       .  S
C1138      O1140   1.264       .  A
C1138      O1144   1.262       .  A
C1138      C1809   1.480       .  S
C1142      C1418   1.475       .  S
In1145     O1147   2.234       .  S
In1145     O1148   2.257       .  S
In1145     O1156   2.240       .  S
In1145     O1150   2.271       .  S
In1145     O1152   2.282       .  S
In1145     O1153   2.254       .  S
In1145     O1154   2.218       .  S
In1145     O1157   2.239       .  S
C1146      O1152   1.269       .  A
C1146      O1154   1.259       .  A
C1146      C2298   1.480       .  S
O1147      C1155   1.261       .  A
O1148      C1155   1.266       .  A
C1149      O1156   1.262       .  A
C1149      O1150   1.267       .  A
C1149      C1378   1.499       .  S
C1151      O1153   1.267       .  A
C1151      O1157   1.263       .  A
C1151      C3958   1.489       .  S
C1155      C1389   1.476       .  S
In1158     O1160   2.236       .  S
In1158     O1161   2.249       .  S
In1158     O1169   2.237       .  S
In1158     O1163   2.251       .  S
In1158     O1165   2.258       .  S
In1158     O1166   2.248       .  S
In1158     O1167   2.215       .  S
In1158     O1170   2.223       .  S
C1159      O1165   1.267       .  A
C1159      O1167   1.258       .  A
C1159      C4829   1.468       .  S
O1160      C1168   1.261       .  A
O1161      C1168   1.265       .  A
C1162      O1169   1.262       .  A
C1162      O1163   1.265       .  A
C1162      C1349   1.485       .  S
C1164      O1166   1.266       .  A
C1164      O1170   1.261       .  A
C1164      C3258   1.479       .  S
C1168      C1398   1.478       .  S
In1171     O1173   2.231       .  S
In1171     O1174   2.251       .  S
In1171     O1182   2.225       .  S
In1171     O1176   2.268       .  S
In1171     O1178   2.263       .  S
In1171     O1179   2.236       .  S
In1171     O1180   2.208       .  S
In1171     O1183   2.242       .  S
C1172      O1178   1.267       .  A
C1172      O1180   1.259       .  A
C1172      C1658   1.472       .  S
O1173      C1181   1.260       .  A
O1174      C1181   1.262       .  A
C1175      O1182   1.259       .  A
C1175      O1176   1.264       .  A
C1175      C1358   1.482       .  S
C1177      O1179   1.263       .  A
C1177      O1183   1.262       .  A
C1177      C2258   1.481       .  S
C1181      C1329   1.470       .  S
In1184     O1186   2.231       .  S
In1184     O1187   2.243       .  S
In1184     O1195   2.236       .  S
In1184     O1189   2.247       .  S
In1184     O1191   2.265       .  S
In1184     O1192   2.252       .  S
In1184     O1193   2.206       .  S
In1184     O1196   2.242       .  S
C1185      O1191   1.267       .  A
C1185      O1193   1.258       .  A
C1185      C3318   1.468       .  S
O1186      C1194   1.262       .  A
O1187      C1194   1.266       .  A
C1188      O1195   1.262       .  A
C1188      O1189   1.265       .  A
C1188      C1318   1.482       .  S
C1190      O1192   1.264       .  A
C1190      O1196   1.260       .  A
C1190      C3758   1.477       .  S
C1194      C1338   1.480       .  S
In1197     O1199   2.217       .  S
In1197     O1200   2.244       .  S
In1197     O1208   2.227       .  S
In1197     O1202   2.265       .  S
In1197     O1204   2.271       .  S
In1197     O1205   2.241       .  S
In1197     O1206   2.217       .  S
In1197     O1209   2.215       .  S
C1198      O1204   1.273       .  A
C1198      O1206   1.262       .  A
C1198      C1438   1.491       .  S
O1199      C1207   1.263       .  A
O1200      C1207   1.269       .  A
C1201      O1208   1.263       .  A
C1201      O1202   1.271       .  A
C1201      C1369   1.488       .  S
C1203      O1205   1.269       .  A
C1203      O1209   1.264       .  A
C1203      C4998   1.488       .  S
C1207      C1289   1.484       .  S
In1210     O1212   2.217       .  S
In1210     O1213   2.244       .  S
In1210     O1221   2.221       .  S
In1210     O1215   2.266       .  S
In1210     O1217   2.271       .  S
In1210     O1218   2.236       .  S
In1210     O1219   2.204       .  S
In1210     O1222   2.233       .  S
C1211      O1217   1.270       .  A
C1211      O1219   1.259       .  A
C1211      C3878   1.476       .  S
O1212      C1220   1.262       .  A
O1213      C1220   1.266       .  A
C1214      O1221   1.260       .  A
C1214      O1215   1.267       .  A
C1214      C1278   1.480       .  S
C1216      O1218   1.264       .  A
C1216      O1222   1.261       .  A
C1216      C2689   1.470       .  S
C1220      C1298   1.490       .  S
In1223     O1225   2.219       .  S
In1223     O1226   2.247       .  S
In1223     O1234   2.231       .  S
In1223     O1228   2.261       .  S
In1223     O1230   2.259       .  S
In1223     O1231   2.245       .  S
In1223     O1232   2.219       .  S
In1223     O1235   2.218       .  S
C1224      O1230   1.269       .  A
C1224      O1232   1.260       .  A
C1224      C3378   1.474       .  S
O1225      C1233   1.262       .  A
O1226      C1233   1.267       .  A
C1227      O1234   1.262       .  A
C1227      O1228   1.267       .  A
C1227      C1269   1.492       .  S
C1229      O1231   1.267       .  A
C1229      O1235   1.262       .  A
C1229      C1498   1.479       .  S
C1233      C1258   1.477       .  S
In1236     O1238   2.231       .  S
In1236     O1239   2.253       .  S
In1236     O1247   2.230       .  S
In1236     O1241   2.265       .  S
In1236     O1243   2.276       .  S
In1236     O1244   2.240       .  S
In1236     O1245   2.197       .  S
In1236     O1248   2.234       .  S
C1237      O1243   1.269       .  A
C1237      O1245   1.258       .  A
C1237      C2709   1.473       .  S
O1238      C1246   1.259       .  A
O1239      C1246   1.263       .  A
C1240      O1247   1.260       .  A
C1240      O1241   1.265       .  A
C1240      C1309   1.494       .  S
C1242      O1244   1.266       .  A
C1242      O1248   1.264       .  A
C1242      C1738   1.486       .  S
C1246      C1249   1.470       .  S
C1249      C1250   1.409       .  A
C1249      C1254   1.407       .  A
C1250      C1251   1.402       .  A
C1250     Br1262   1.926       .  S
C1251      C1252   1.406       .  A
C1251     Br1266   1.931       .  S
C1252      C1255   1.479       .  S
C1252      C1253   1.410       .  A
C1253      C1254   1.408       .  A
C1253     Br1261   1.929       .  S
C1254     Br1265   1.924       .  S
C1255      C1256   1.407       .  A
C1255      C1260   1.407       .  A
C1256      C1257   1.406       .  A
C1256     Br1267   1.932       .  S
C1257      C1258   1.414       .  A
C1257     Br1263   1.930       .  S
C1258      C1259   1.412       .  A
C1259      C1260   1.406       .  A
C1259     Br1268   1.931       .  S
C1260     Br1264   1.931       .  S
C1269      C1270   1.417       .  A
C1269      C1274   1.418       .  A
C1270      C1271   1.412       .  A
C1270     Br1282   1.930       .  S
C1271      C1272   1.408       .  A
C1271     Br1286   1.929       .  S
C1272      C1275   1.489       .  S
C1272      C1273   1.407       .  A
C1273      C1274   1.408       .  A
C1273     Br1281   1.933       .  S
C1274     Br1285   1.933       .  S
C1275      C1276   1.410       .  A
C1275      C1280   1.409       .  A
C1276      C1277   1.411       .  A
C1276     Br1287   1.929       .  S
C1277      C1278   1.411       .  A
C1277     Br1283   1.928       .  S
C1278      C1279   1.412       .  A
C1279      C1280   1.408       .  A
C1279     Br1288   1.932       .  S
C1280     Br1284   1.929       .  S
C1289      C1290   1.414       .  A
C1289      C1294   1.418       .  A
C1290      C1291   1.409   1_655  A
C1290     Br1302   1.930       .  S
C1291      C1292   1.408       .  A
C1291     Br1306   1.931       .  S
C1292      C1295   1.483       .  S
C1292      C1293   1.406       .  A
C1293      C1294   1.406   1_455  A
C1293     Br1301   1.932       .  S
C1294     Br1305   1.934       .  S
C1295      C1296   1.405       .  A
C1295      C1300   1.406       .  A
C1296      C1297   1.407       .  A
C1296     Br1307   1.932       .  S
C1297      C1298   1.420       .  A
C1297     Br1303   1.934       .  S
C1298      C1299   1.420       .  A
C1299      C1300   1.409       .  A
C1299     Br1308   1.934       .  S
C1300     Br1304   1.933       .  S
C1309      C1310   1.419       .  A
C1309      C1314   1.418       .  A
C1310      C1311   1.407       .  A
C1310     Br1322   1.931       .  S
C1311      C1312   1.406       .  A
C1311     Br1326   1.933       .  S
C1312      C1315   1.489       .  S
C1312      C1313   1.409       .  A
C1313      C1314   1.413       .  A
C1313     Br1321   1.930       .  S
C1314     Br1325   1.931       .  S
C1315      C1316   1.410       .  A
C1315      C1320   1.409       .  A
C1316      C1317   1.409       .  A
C1316     Br1327   1.931       .  S
C1317      C1318   1.414       .  A
C1317     Br1323   1.931       .  S
C1318      C1319   1.412       .  A
C1319      C1320   1.409       .  A
C1319     Br1328   1.931       .  S
C1320     Br1324   1.929       .  S
C1329      C1330   1.408       .  A
C1329      C1334   1.408       .  A
C1330      C1331   1.404       .  A
C1330     Br1342   1.930       .  S
C1331      C1332   1.408       .  A
C1331     Br1346   1.930       .  S
C1332      C1335   1.482       .  S
C1332      C1333   1.411       .  A
C1333      C1334   1.409       .  A
C1333     Br1341   1.928       .  S
C1334     Br1345   1.928       .  S
C1335      C1336   1.407       .  A
C1335      C1340   1.408       .  A
C1336      C1337   1.407       .  A
C1336     Br1347   1.930       .  S
C1337      C1338   1.414       .  A
C1337     Br1343   1.932       .  S
C1338      C1339   1.413       .  A
C1339      C1340   1.407       .  A
C1339     Br1348   1.930       .  S
C1340     Br1344   1.931       .  S
C1349      C1350   1.414       .  A
C1349      C1354   1.414       .  A
C1350      C1351   1.408       .  A
C1350     Br1362   1.931       .  S
C1351      C1352   1.409       .  A
C1351     Br1366   1.932       .  S
C1352      C1355   1.489       .  S
C1352      C1353   1.409       .  A
C1353      C1354   1.411       .  A
C1353     Br1361   1.928       .  S
C1354     Br1365   1.931       .  S
C1355      C1356   1.410       .  A
C1355      C1360   1.408       .  A
C1356      C1357   1.412       .  A
C1356     Br1367   1.929       .  S
C1357      C1358   1.413       .  A
C1357     Br1363   1.929       .  S
C1358      C1359   1.413       .  A
C1359      C1360   1.406       .  A
C1359     Br1368   1.933       .  S
C1360     Br1364   1.930       .  S
C1369      C1370   1.413       .  A
C1369      C1374   1.412       .  A
C1370      C1371   1.411       .  A
C1370     Br1382   1.931       .  S
C1371      C1372   1.410       .  A
C1371     Br1386   1.930       .  S
C1372      C1375   1.498       .  S
C1372      C1373   1.412       .  A
C1373      C1374   1.414       .  A
C1373     Br1381   1.928       .  S
C1374     Br1385   1.929       .  S
C1375      C1376   1.409       .  A
C1375      C1380   1.409       .  A
C1376      C1377   1.415       .  A
C1376     Br1387   1.929       .  S
C1377      C1378   1.418       .  A
C1377     Br1383   1.930       .  S
C1378      C1379   1.419       .  A
C1379      C1380   1.412       .  A
C1379     Br1388   1.933       .  S
C1380     Br1384   1.932       .  S
C1389      C1390   1.409       .  A
C1389      C1394   1.408       .  A
C1390      C1391   1.411       .  A
C1390     Br1402   1.928       .  S
C1391      C1392   1.411       .  A
C1391     Br1406   1.928       .  S
C1392      C1395   1.489       .  S
C1392      C1393   1.411       .  A
C1393      C1394   1.407       .  A
C1393     Br1401   1.930       .  S
C1394     Br1405   1.930       .  S
C1395      C1396   1.411       .  A
C1395      C1400   1.409       .  A
C1396      C1397   1.410       .  A
C1396     Br1407   1.929       .  S
C1397      C1398   1.411       .  A
C1397     Br1403   1.931       .  S
C1398      C1399   1.411       .  A
C1399      C1400   1.408       .  A
C1399     Br1408   1.931       .  S
C1400     Br1404   1.929       .  S
C1409      C1410   1.408       .  A
C1409      C1414   1.414       .  A
C1410      C1411   1.405       .  A
C1410     Br1422   1.929       .  S
C1411      C1412   1.410       .  A
C1411     Br1426   1.931       .  S
C1412      C1415   1.483       .  S
C1412      C1413   1.408       .  A
C1413      C1414   1.407       .  A
C1413     Br1421   1.931   1_455  S
C1414     Br1425   1.932   1_455  S
C1415      C1416   1.410       .  A
C1415      C1420   1.407       .  A
C1416      C1417   1.408       .  A
C1416     Br1427   1.931   1_455  S
C1417      C1418   1.409       .  A
C1417     Br1423   1.927       .  S
C1418      C1419   1.412       .  A
C1419      C1420   1.406       .  A
C1419     Br1428   1.929       .  S
C1420     Br1424   1.931       .  S
C1429      C1430   1.411       .  A
C1429      C1434   1.412       .  A
C1430      C1431   1.407       .  A
C1430     Br1442   1.933       .  S
C1431      C1432   1.411       .  A
C1431     Br1446   1.931       .  S
C1432      C1435   1.494       .  S
C1432      C1433   1.412       .  A
C1433      C1434   1.412       .  A
C1433     Br1441   1.929       .  S
C1434     Br1445   1.930       .  S
C1435      C1436   1.411       .  A
C1435      C1440   1.409       .  A
C1436      C1437   1.413       .  A
C1436     Br1447   1.931       .  S
C1437      C1438   1.414       .  A
C1437     Br1443   1.929       .  S
C1438      C1439   1.417       .  A
C1439      C1440   1.409       .  A
C1439     Br1448   1.932       .  S
C1440     Br1444   1.933       .  S
C1449      C1450   1.425       .  A
C1449      C1454   1.422       .  A
C1450      C1451   1.409       .  A
C1450     Br1462   1.932   1_455  S
C1451      C1452   1.404       .  A
C1451     Br1466   1.935   1_455  S
C1452      C1455   1.486       .  S
C1452      C1453   1.405       .  A
C1453      C1454   1.410       .  A
C1453     Br1461   1.932       .  S
C1454     Br1465   1.934       .  S
C1455      C1456   1.406       .  A
C1455      C1460   1.406       .  A
C1456      C1457   1.409   1_556  A
C1456     Br1467   1.930   1_455  S
C1457      C1458   1.417       .  A
C1457     Br1463   1.932       .  S
C1458      C1459   1.422       .  A
C1459      C1460   1.408   1_554  A
C1459     Br1468   1.936       .  S
C1460     Br1464   1.933       .  S
C1469      C1470   1.415       .  A
C1469      C1474   1.416       .  A
C1470      C1471   1.415       .  A
C1470     Br1482   1.930       .  S
C1471      C1472   1.411       .  A
C1471     Br1486   1.928       .  S
C1472      C1475   1.494       .  S
C1472      C1473   1.408       .  A
C1473      C1474   1.408       .  A
C1473     Br1481   1.932       .  S
C1474     Br1485   1.931       .  S
C1475      C1476   1.410       .  A
C1475      C1480   1.410       .  A
C1476      C1477   1.413       .  A
C1476     Br1487   1.928       .  S
C1477      C1478   1.415       .  A
C1477     Br1483   1.930   1_455  S
C1478      C1479   1.416       .  A
C1479      C1480   1.410       .  A
C1479     Br1488   1.931       .  S
C1480     Br1484   1.932       .  S
C1489      C1490   1.407       .  A
C1489      C1494   1.410       .  A
C1490      C1491   1.407       .  A
C1490     Br1502   1.930       .  S
C1491      C1492   1.411       .  A
C1491     Br1506   1.930       .  S
C1492      C1495   1.487       .  S
C1492      C1493   1.409       .  A
C1493      C1494   1.409       .  A
C1493     Br1501   1.929       .  S
C1494     Br1505   1.929       .  S
C1495      C1496   1.409       .  A
C1495      C1500   1.408       .  A
C1496      C1497   1.408       .  A
C1496     Br1507   1.931       .  S
C1497      C1498   1.413       .  A
C1497     Br1503   1.932       .  S
C1498      C1499   1.413       .  A
C1499      C1500   1.409       .  A
C1499     Br1508   1.931       .  S
C1500     Br1504   1.928       .  S
C1509      C1510   1.414       .  A
C1509      C1514   1.414       .  A
C1510      C1511   1.409       .  A
C1510     Br1522   1.926       .  S
C1511      C1512   1.408       .  A
C1511     Br1526   1.932       .  S
C1512      C1515   1.493       .  S
C1512      C1513   1.410       .  A
C1513      C1514   1.413       .  A
C1513     Br1521   1.928       .  S
C1514     Br1525   1.929       .  S
C1515      C1516   1.409       .  A
C1515      C1520   1.409       .  A
C1516      C1517   1.411       .  A
C1516     Br1527   1.931       .  S
C1517      C1518   1.418       .  A
C1517     Br1523   1.934       .  S
C1518      C1519   1.415       .  A
C1519      C1520   1.411       .  A
C1519     Br1528   1.929   1_455  S
C1520     Br1524   1.930       .  S
C1529      C1530   1.407       .  A
C1529      C1534   1.410       .  A
C1530      C1531   1.408       .  A
C1530     Br1542   1.924       .  S
C1531      C1532   1.410       .  A
C1531     Br1546   1.928       .  S
C1532      C1535   1.485       .  S
C1532      C1533   1.408       .  A
C1533      C1534   1.406       .  A
C1533     Br1541   1.930       .  S
C1534     Br1545   1.925       .  S
C1535      C1536   1.408       .  A
C1535      C1540   1.407       .  A
C1536      C1537   1.409       .  A
C1536     Br1547   1.931       .  S
C1537      C1538   1.415       .  A
C1537     Br1543   1.930       .  S
C1538      C1539   1.415       .  A
C1539      C1540   1.408       .  A
C1539     Br1548   1.932       .  S
C1540     Br1544   1.931       .  S
C1549      C1550   1.418       .  A
C1549      C1554   1.417       .  A
C1550      C1551   1.416   1_655  A
C1550     Br1562   1.930       .  S
C1551      C1552   1.410       .  A
C1551     Br1566   1.929       .  S
C1552      C1555   1.496       .  S
C1552      C1553   1.408   1_455  A
C1553      C1554   1.410       .  A
C1553     Br1561   1.932       .  S
C1554     Br1565   1.927       .  S
C1555      C1556   1.410       .  A
C1555      C1560   1.411       .  A
C1556      C1557   1.410       .  A
C1556     Br1567   1.930       .  S
C1557      C1558   1.414       .  A
C1557     Br1563   1.932       .  S
C1558      C1559   1.413       .  A
C1559      C1560   1.413       .  A
C1559     Br1568   1.930       .  S
C1560     Br1564   1.928       .  S
C1569      C1570   1.418       .  A
C1569      C1574   1.420       .  A
C1570      C1571   1.416       .  A
C1570     Br1582   1.929       .  S
C1571      C1572   1.410   1_455  A
C1571     Br1586   1.930       .  S
C1572      C1575   1.502       .  S
C1572      C1573   1.409       .  A
C1573      C1574   1.415   1_655  A
C1573     Br1581   1.931       .  S
C1574     Br1585   1.930   1_455  S
C1575      C1576   1.413       .  A
C1575      C1580   1.411       .  A
C1576      C1577   1.415       .  A
C1576     Br1587   1.928       .  S
C1577      C1578   1.412       .  A
C1577     Br1583   1.928       .  S
C1578      C1579   1.412       .  A
C1579      C1580   1.412       .  A
C1579     Br1588   1.931       .  S
C1580     Br1584   1.928       .  S
C1589      C1590   1.419       .  A
C1589      C1594   1.424       .  A
C1590      C1591   1.410       .  A
C1590     Br1602   1.932       .  S
C1591      C1592   1.407       .  A
C1591     Br1606   1.932       .  S
C1592      C1595   1.490       .  S
C1592      C1593   1.406       .  A
C1593      C1594   1.411       .  A
C1593     Br1601   1.933       .  S
C1594     Br1605   1.934       .  S
C1595      C1596   1.404       .  A
C1595      C1600   1.405       .  A
C1596      C1597   1.409       .  A
C1596     Br1607   1.935       .  S
C1597      C1598   1.428       .  A
C1597     Br1603   1.937       .  S
C1598      C1599   1.426       .  A
C1599      C1600   1.413       .  A
C1599     Br1608   1.934       .  S
C1600     Br1604   1.932       .  S
C1609      C1610   1.413       .  A
C1609      C1614   1.411       .  A
C1610      C1611   1.407       .  A
C1610     Br1622   1.932       .  S
C1611      C1612   1.408       .  A
C1611     Br1626   1.929       .  S
C1612      C1615   1.489       .  S
C1612      C1613   1.411       .  A
C1613      C1614   1.410       .  A
C1613     Br1621   1.930       .  S
C1614     Br1625   1.931       .  S
C1615      C1616   1.409       .  A
C1615      C1620   1.411       .  A
C1616      C1617   1.408       .  A
C1616     Br1627   1.930       .  S
C1617      C1618   1.410       .  A
C1617     Br1623   1.930       .  S
C1618      C1619   1.409       .  A
C1619      C1620   1.410       .  A
C1619     Br1628   1.928       .  S
C1620     Br1624   1.929       .  S
C1629      C1630   1.415       .  A
C1629      C1634   1.413       .  A
C1630      C1631   1.411       .  A
C1630     Br1642   1.933       .  S
C1631      C1632   1.410       .  A
C1631     Br1646   1.929       .  S
C1632      C1635   1.498       .  S
C1632      C1633   1.412       .  A
C1633      C1634   1.414       .  A
C1633     Br1641   1.928       .  S
C1634     Br1645   1.930       .  S
C1635      C1636   1.410       .  A
C1635      C1640   1.409       .  A
C1636      C1637   1.416       .  A
C1636     Br1647   1.929       .  S
C1637      C1638   1.417       .  A
C1637     Br1643   1.929       .  S
C1638      C1639   1.417       .  A
C1639      C1640   1.411       .  A
C1639     Br1648   1.931       .  S
C1640     Br1644   1.932       .  S
C1649      C1650   1.422       .  A
C1649      C1654   1.420       .  A
C1650      C1651   1.411       .  A
C1650     Br1662   1.932       .  S
C1651      C1652   1.405       .  A
C1651     Br1666   1.930       .  S
C1652      C1655   1.488       .  S
C1652      C1653   1.408       .  A
C1653      C1654   1.411       .  A
C1653     Br1661   1.933       .  S
C1654     Br1665   1.932       .  S
C1655      C1656   1.412       .  A
C1655      C1660   1.409       .  A
C1656      C1657   1.412       .  A
C1656     Br1667   1.925       .  S
C1657      C1658   1.409       .  A
C1657     Br1663   1.930       .  S
C1658      C1659   1.409       .  A
C1659      C1660   1.403       .  A
C1659     Br1668   1.932       .  S
C1660     Br1664   1.930       .  S
C1669      C1670   1.410       .  A
C1669      C1674   1.410       .  A
C1670      C1671   1.413       .  A
C1670     Br1682   1.930       .  S
C1671      C1672   1.413       .  A
C1671     Br1686   1.929       .  S
C1672      C1675   1.497       .  S
C1672      C1673   1.411       .  A
C1673      C1674   1.410       .  A
C1673     Br1681   1.927       .  S
C1674     Br1685   1.931       .  S
C1675      C1676   1.412       .  A
C1675      C1680   1.411       .  A
C1676      C1677   1.412       .  A
C1676     Br1687   1.928       .  S
C1677      C1678   1.409       .  A
C1677     Br1683   1.929       .  S
C1678      C1679   1.411       .  A
C1679      C1680   1.412       .  A
C1679     Br1688   1.930       .  S
C1680     Br1684   1.929       .  S
C1689      C1690   1.410       .  A
C1689      C1694   1.413       .  A
C1690      C1691   1.410       .  A
C1690     Br1702   1.929       .  S
C1691      C1692   1.410       .  A
C1691     Br1706   1.928       .  S
C1692      C1695   1.490       .  S
C1692      C1693   1.410       .  A
C1693      C1694   1.409       .  A
C1693     Br1701   1.930       .  S
C1694     Br1705   1.932       .  S
C1695      C1696   1.409       .  A
C1695      C1700   1.409       .  A
C1696      C1697   1.409       .  A
C1696     Br1707   1.931       .  S
C1697      C1698   1.415       .  A
C1697     Br1703   1.932       .  S
C1698      C1699   1.415       .  A
C1699      C1700   1.411       .  A
C1699     Br1708   1.930       .  S
C1700     Br1704   1.929       .  S
C1709      C1710   1.410       .  A
C1709      C1714   1.407       .  A
C1710      C1711   1.408       .  A
C1710     Br1722   1.929       .  S
C1711      C1712   1.410       .  A
C1711     Br1726   1.930       .  S
C1712      C1715   1.491       .  S
C1712      C1713   1.412       .  A
C1713      C1714   1.410       .  A
C1713     Br1721   1.929       .  S
C1714     Br1725   1.928       .  S
C1715      C1716   1.410       .  A
C1715      C1720   1.410       .  A
C1716      C1717   1.410       .  A
C1716     Br1727   1.931       .  S
C1717      C1718   1.415       .  A
C1717     Br1723   1.933       .  S
C1718      C1719   1.412       .  A
C1719      C1720   1.408       .  A
C1719     Br1728   1.932       .  S
C1720     Br1724   1.930       .  S
C1729      C1730   1.410       .  A
C1729      C1734   1.411       .  A
C1730      C1731   1.411       .  A
C1730     Br1742   1.927       .  S
C1731      C1732   1.410       .  A
C1731     Br1746   1.929       .  S
C1732      C1735   1.488       .  S
C1732      C1733   1.409       .  A
C1733      C1734   1.407       .  A
C1733     Br1741   1.931       .  S
C1734     Br1745   1.929       .  S
C1735      C1736   1.408       .  A
C1735      C1740   1.408       .  A
C1736      C1737   1.410       .  A
C1736     Br1747   1.928       .  S
C1737      C1738   1.415       .  A
C1737     Br1743   1.930       .  S
C1738      C1739   1.417       .  A
C1739      C1740   1.407       .  A
C1739     Br1748   1.934       .  S
C1740     Br1744   1.933       .  S
C1749      C1750   1.410       .  A
C1749      C1754   1.413       .  A
C1750      C1751   1.406       .  A
C1750     Br1762   1.932       .  S
C1751      C1752   1.409       .  A
C1751     Br1766   1.929       .  S
C1752      C1755   1.485       .  S
C1752      C1753   1.409       .  A
C1753      C1754   1.408       .  A
C1753     Br1761   1.929       .  S
C1754     Br1765   1.934       .  S
C1755      C1756   1.407       .  A
C1755      C1760   1.408       .  A
C1756      C1757   1.408       .  A
C1756     Br1767   1.933       .  S
C1757      C1758   1.415       .  A
C1757     Br1763   1.930       .  S
C1758      C1759   1.413       .  A
C1759      C1760   1.410       .  A
C1759     Br1768   1.929       .  S
C1760     Br1764   1.929       .  S
C1769      C1770   1.413       .  A
C1769      C1774   1.413       .  A
C1770      C1771   1.410       .  A
C1770     Br1782   1.930       .  S
C1771      C1772   1.409       .  A
C1771     Br1786   1.930       .  S
C1772      C1775   1.497       .  S
C1772      C1773   1.412       .  A
C1773      C1774   1.414       .  A
C1773     Br1781   1.927       .  S
C1774     Br1785   1.930       .  S
C1775      C1776   1.410       .  A
C1775      C1780   1.409       .  A
C1776      C1777   1.414       .  A
C1776     Br1787   1.929       .  S
C1777      C1778   1.415       .  A
C1777     Br1783   1.928       .  S
C1778      C1779   1.417       .  A
C1779      C1780   1.413       .  A
C1779     Br1788   1.931       .  S
C1780     Br1784   1.931       .  S
C1789      C1790   1.410       .  A
C1789      C1794   1.408       .  A
C1790      C1791   1.405       .  A
C1790     Br1802   1.927       .  S
C1791      C1792   1.407       .  A
C1791     Br1806   1.932       .  S
C1792      C1795   1.482       .  S
C1792      C1793   1.410       .  A
C1793      C1794   1.410       .  A
C1793     Br1801   1.928       .  S
C1794     Br1805   1.926       .  S
C1795      C1796   1.407       .  A
C1795      C1800   1.408       .  A
C1796      C1797   1.407   1_556  A
C1796     Br1807   1.930       .  S
C1797      C1798   1.413       .  A
C1797     Br1803   1.931       .  S
C1798      C1799   1.412       .  A
C1799      C1800   1.406   1_554  A
C1799     Br1808   1.932       .  S
C1800     Br1804   1.929       .  S
C1809      C1810   1.411       .  A
C1809      C1814   1.414       .  A
C1810      C1811   1.409       .  A
C1810     Br1822   1.929       .  S
C1811      C1812   1.409       .  A
C1811     Br1826   1.927       .  S
C1812      C1815   1.488       .  S
C1812      C1813   1.410       .  A
C1813      C1814   1.409       .  A
C1813     Br1821   1.932       .  S
C1814     Br1825   1.933       .  S
C1815      C1816   1.410       .  A
C1815      C1820   1.411       .  A
C1816      C1817   1.407       .  A
C1816     Br1827   1.928       .  S
C1817      C1818   1.408       .  A
C1817     Br1823   1.930       .  S
C1818      C1819   1.409       .  A
C1819      C1820   1.410       .  A
C1819     Br1828   1.928       .  S
C1820     Br1824   1.930       .  S
C1829      C1830   1.410   1_565  A
C1829      C1834   1.411       .  A
C1830      C1831   1.412   1_655  A
C1830     Br1842   1.926       .  S
C1831      C1832   1.413   1_545  A
C1831     Br1846   1.930       .  S
C1832      C1835   1.497   1_565  S
C1832      C1833   1.412       .  A
C1833      C1834   1.410   1_455  A
C1833     Br1841   1.929       .  S
C1834     Br1845   1.931       .  S
C1835      C1836   1.413   1_545  A
C1835      C1840   1.412       .  A
C1836      C1837   1.411   1_565  A
C1836     Br1847   1.930       .  S
C1837      C1838   1.410       .  A
C1837     Br1843   1.930   1_545  S
C1838      C1839   1.413       .  A
C1839      C1840   1.411       .  A
C1839     Br1848   1.932       .  S
C1840     Br1844   1.930       .  S
C1849      C1850   1.417       .  A
C1849      C1854   1.417       .  A
C1850      C1851   1.413       .  A
C1850     Br1862   1.929       .  S
C1851      C1852   1.409       .  A
C1851     Br1866   1.930       .  S
C1852      C1855   1.493       .  S
C1852      C1853   1.408       .  A
C1853      C1854   1.411       .  A
C1853     Br1861   1.931       .  S
C1854     Br1865   1.932       .  S
C1855      C1856   1.408       .  A
C1855      C1860   1.411       .  A
C1856      C1857   1.409       .  A
C1856     Br1867   1.931       .  S
C1857      C1858   1.415   1_565  A
C1857     Br1863   1.932       .  S
C1858      C1859   1.415       .  A
C1859      C1860   1.413   1_545  A
C1859     Br1868   1.931       .  S
C1860     Br1864   1.928       .  S
C1869      C1870   1.412       .  A
C1869      C1874   1.414       .  A
C1870      C1871   1.411       .  A
C1870     Br1882   1.929       .  S
C1871      C1872   1.409       .  A
C1871     Br1886   1.930       .  S
C1872      C1875   1.489       .  S
C1872      C1873   1.408       .  A
C1873      C1874   1.410       .  A
C1873     Br1881   1.930       .  S
C1874     Br1885   1.930       .  S
C1875      C1876   1.412       .  A
C1875      C1880   1.410       .  A
C1876      C1877   1.408       .  A
C1876     Br1887   1.928       .  S
C1877      C1878   1.405       .  A
C1877     Br1883   1.929       .  S
C1878      C1879   1.410       .  A
C1879      C1880   1.409       .  A
C1879     Br1888   1.930       .  S
C1880     Br1884   1.928       .  S
C1889      C1890   1.414       .  A
C1889      C1894   1.413       .  A
C1890      C1891   1.411       .  A
C1890     Br1902   1.933       .  S
C1891      C1892   1.410       .  A
C1891     Br1906   1.930       .  S
C1892      C1895   1.497       .  S
C1892      C1893   1.411       .  A
C1893      C1894   1.413       .  A
C1893     Br1901   1.929   1_565  S
C1894     Br1905   1.929       .  S
C1895      C1896   1.410       .  A
C1895      C1900   1.409       .  A
C1896      C1897   1.414   1_565  A
C1896     Br1907   1.930       .  S
C1897      C1898   1.418       .  A
C1897     Br1903   1.930       .  S
C1898      C1899   1.418   1_545  A
C1899      C1900   1.412       .  A
C1899     Br1908   1.931   1_565  S
C1900     Br1904   1.931       .  S
C1909      C1910   1.408       .  A
C1909      C1914   1.408       .  A
C1910      C1911   1.406       .  A
C1910     Br1922   1.929       .  S
C1911      C1912   1.410       .  A
C1911     Br1926   1.931       .  S
C1912      C1915   1.482       .  S
C1912      C1913   1.408       .  A
C1913      C1914   1.406       .  A
C1913     Br1921   1.928       .  S
C1914     Br1925   1.928       .  S
C1915      C1916   1.409       .  A
C1915      C1920   1.405       .  A
C1916      C1917   1.407       .  A
C1916     Br1927   1.934       .  S
C1917      C1918   1.416       .  A
C1917     Br1923   1.933       .  S
C1918      C1919   1.415       .  A
C1919      C1920   1.407       .  A
C1919     Br1928   1.931       .  S
C1920     Br1924   1.928       .  S
C1929      C1930   1.412       .  A
C1929      C1934   1.409   1_565  A
C1930      C1931   1.410       .  A
C1930     Br1942   1.931       .  S
C1931      C1932   1.411   1_565  A
C1931     Br1946   1.929       .  S
C1932      C1935   1.491       .  S
C1932      C1933   1.411       .  A
C1933      C1934   1.409       .  A
C1933     Br1941   1.929       .  S
C1934     Br1945   1.929       .  S
C1935      C1936   1.409       .  A
C1935      C1940   1.411       .  A
C1936      C1937   1.410       .  A
C1936     Br1947   1.931       .  S
C1937      C1938   1.414       .  A
C1937     Br1943   1.930       .  S
C1938      C1939   1.409       .  A
C1939      C1940   1.410       .  A
C1939     Br1948   1.929   1_545  S
C1940     Br1944   1.929   1_545  S
C1949      C1950   1.415       .  A
C1949      C1954   1.414       .  A
C1950      C1951   1.409       .  A
C1950     Br1962   1.932       .  S
C1951      C1952   1.407       .  A
C1951     Br1966   1.928       .  S
C1952      C1955   1.483       .  S
C1952      C1953   1.408       .  A
C1953      C1954   1.404       .  A
C1953     Br1961   1.933       .  S
C1954     Br1965   1.935       .  S
C1955      C1956   1.409       .  A
C1955      C1960   1.409       .  A
C1956      C1957   1.410       .  A
C1956     Br1967   1.928       .  S
C1957      C1958   1.410       .  A
C1957     Br1963   1.927       .  S
C1958      C1959   1.409       .  A
C1959      C1960   1.405       .  A
C1959     Br1968   1.929       .  S
C1960     Br1964   1.932       .  S
C1969      C1970   1.417       .  A
C1969      C1974   1.416       .  A
C1970      C1971   1.414       .  A
C1970     Br1982   1.929   1_545  S
C1971      C1972   1.409       .  A
C1971     Br1986   1.929       .  S
C1972      C1975   1.492       .  S
C1972      C1973   1.408       .  A
C1973      C1974   1.409       .  A
C1973     Br1981   1.932       .  S
C1974     Br1985   1.930       .  S
C1975      C1976   1.408       .  A
C1975      C1980   1.410       .  A
C1976      C1977   1.409       .  A
C1976     Br1987   1.931       .  S
C1977      C1978   1.416       .  A
C1977     Br1983   1.932       .  S
C1978      C1979   1.413       .  A
C1979      C1980   1.412       .  A
C1979     Br1988   1.928       .  S
C1980     Br1984   1.928       .  S
C1989      C1990   1.415       .  A
C1989      C1994   1.416       .  A
C1990      C1991   1.411       .  A
C1990     Br2002   1.932       .  S
C1991      C1992   1.411       .  A
C1991     Br2006   1.932       .  S
C1992      C1995   1.494       .  S
C1992      C1993   1.408       .  A
C1993      C1994   1.413       .  A
C1993     Br2001   1.928       .  S
C1994     Br2005   1.930       .  S
C1995      C1996   1.412       .  A
C1995      C2000   1.410       .  A
C1996      C1997   1.411       .  A
C1996     Br2007   1.930       .  S
C1997      C1998   1.410       .  A
C1997     Br2003   1.929       .  S
C1998      C1999   1.411       .  A
C1999      C2000   1.410       .  A
C1999     Br2008   1.931       .  S
C2000     Br2004   1.927       .  S
C2009      C2010   1.418       .  A
C2009      C2014   1.417       .  A
C2010      C2011   1.413       .  A
C2010     Br2022   1.931       .  S
C2011      C2012   1.409       .  A
C2011     Br2026   1.930       .  S
C2012      C2015   1.501       .  S
C2012      C2013   1.410       .  A
C2013      C2014   1.415       .  A
C2013     Br2021   1.928       .  S
C2014     Br2025   1.931       .  S
C2015      C2016   1.408       .  A
C2015      C2020   1.410       .  A
C2016      C2017   1.412       .  A
C2016     Br2027   1.932       .  S
C2017      C2018   1.419       .  A
C2017     Br2023   1.930       .  S
C2018      C2019   1.418   1_545  A
C2019      C2020   1.418   1_565  A
C2019     Br2028   1.928       .  S
C2020     Br2024   1.929   1_545  S
C2029      C2030   1.411       .  A
C2029      C2034   1.413       .  A
C2030      C2031   1.410       .  A
C2030     Br2042   1.926       .  S
C2031      C2032   1.410       .  A
C2031     Br2046   1.931       .  S
C2032      C2035   1.493       .  S
C2032      C2033   1.411       .  A
C2033      C2034   1.413       .  A
C2033     Br2041   1.929       .  S
C2034     Br2045   1.931       .  S
C2035      C2036   1.412       .  A
C2035      C2040   1.412       .  A
C2036      C2037   1.410       .  A
C2036     Br2047   1.927       .  S
C2037      C2038   1.408       .  A
C2037     Br2043   1.929       .  S
C2038      C2039   1.410       .  A
C2039      C2040   1.410       .  A
C2039     Br2048   1.932       .  S
C2040     Br2044   1.929       .  S
C2049      C2050   1.409       .  A
C2049      C2054   1.412       .  A
C2050      C2051   1.409       .  A
C2050     Br2062   1.927       .  S
C2051      C2052   1.409       .  A
C2051     Br2066   1.928       .  S
C2052      C2055   1.488       .  S
C2052      C2053   1.411       .  A
C2053      C2054   1.409       .  A
C2053     Br2061   1.931       .  S
C2054     Br2065   1.931       .  S
C2055      C2056   1.408       .  A
C2055      C2060   1.412       .  A
C2056      C2057   1.406       .  A
C2056     Br2067   1.929       .  S
C2057      C2058   1.409       .  A
C2057     Br2063   1.930       .  S
C2058      C2059   1.409       .  A
C2059      C2060   1.412       .  A
C2059     Br2068   1.927       .  S
C2060     Br2064   1.928       .  S
C2069      C2070   1.410       .  A
C2069      C2074   1.409       .  A
C2070      C2071   1.407       .  A
C2070     Br2082   1.932       .  S
C2071      C2072   1.411       .  A
C2071     Br2086   1.929       .  S
C2072      C2075   1.492       .  S
C2072      C2073   1.412       .  A
C2073      C2074   1.412       .  A
C2073     Br2081   1.927       .  S
C2074     Br2085   1.928       .  S
C2075      C2076   1.410       .  A
C2075      C2080   1.408       .  A
C2076      C2077   1.410       .  A
C2076     Br2087   1.932       .  S
C2077      C2078   1.417       .  A
C2077     Br2083   1.933       .  S
C2078      C2079   1.415       .  A
C2079      C2080   1.411       .  A
C2079     Br2088   1.930       .  S
C2080     Br2084   1.929       .  S
C2089      C2090   1.413       .  A
C2089      C2094   1.411       .  A
C2090      C2091   1.409       .  A
C2090     Br2102   1.930       .  S
C2091      C2092   1.409       .  A
C2091     Br2106   1.931       .  S
C2092      C2095   1.491       .  S
C2092      C2093   1.410       .  A
C2093      C2094   1.410       .  A
C2093     Br2101   1.929       .  S
C2094     Br2105   1.929       .  S
C2095      C2096   1.409       .  A
C2095      C2100   1.409       .  A
C2096      C2097   1.412       .  A
C2096     Br2107   1.930       .  S
C2097      C2098   1.417       .  A
C2097     Br2103   1.931       .  S
C2098      C2099   1.415       .  A
C2099      C2100   1.409       .  A
C2099     Br2108   1.931       .  S
C2100     Br2104   1.931       .  S
C2109      C2110   1.420       .  A
C2109      C2114   1.425       .  A
C2110      C2111   1.409       .  A
C2110     Br2122   1.933       .  S
C2111      C2112   1.407       .  A
C2111     Br2126   1.932       .  S
C2112      C2115   1.492       .  S
C2112      C2113   1.406       .  A
C2113      C2114   1.413       .  A
C2113     Br2121   1.930       .  S
C2114     Br2125   1.934       .  S
C2115      C2116   1.408       .  A
C2115      C2120   1.410       .  A
C2116      C2117   1.408       .  A
C2116     Br2127   1.932       .  S
C2117      C2118   1.413       .  A
C2117     Br2123   1.929       .  S
C2118      C2119   1.412       .  A
C2119      C2120   1.413       .  A
C2119     Br2128   1.926       .  S
C2120     Br2124   1.927       .  S
C2129      C2130   1.412       .  A
C2129      C2134   1.412       .  A
C2130      C2131   1.410       .  A
C2130     Br2142   1.930       .  S
C2131      C2132   1.409       .  A
C2131     Br2146   1.928       .  S
C2132      C2135   1.487       .  S
C2132      C2133   1.410       .  A
C2133      C2134   1.408       .  A
C2133     Br2141   1.932       .  S
C2134     Br2145   1.930       .  S
C2135      C2136   1.408       .  A
C2135      C2140   1.412       .  A
C2136      C2137   1.407       .  A
C2136     Br2147   1.929       .  S
C2137      C2138   1.411       .  A
C2137     Br2143   1.930       .  S
C2138      C2139   1.407       .  A
C2139      C2140   1.409       .  A
C2139     Br2148   1.930       .  S
C2140     Br2144   1.928       .  S
C2149      C2150   1.418       .  A
C2149      C2154   1.418       .  A
C2150      C2151   1.417       .  A
C2150     Br2162   1.930       .  S
C2151      C2152   1.411       .  A
C2151     Br2166   1.929       .  S
C2152      C2155   1.501       .  S
C2152      C2153   1.409       .  A
C2153      C2154   1.412       .  A
C2153     Br2161   1.931       .  S
C2154     Br2165   1.932       .  S
C2155      C2156   1.412       .  A
C2155      C2160   1.410       .  A
C2156      C2157   1.415       .  A
C2156     Br2167   1.928       .  S
C2157      C2158   1.414       .  A
C2157     Br2163   1.929       .  S
C2158      C2159   1.415       .  A
C2159      C2160   1.413       .  A
C2159     Br2168   1.928       .  S
C2160     Br2164   1.930       .  S
C2169      C2170   1.410       .  A
C2169      C2174   1.413       .  A
C2170      C2171   1.411       .  A
C2170     Br2182   1.929       .  S
C2171      C2172   1.411       .  A
C2171     Br2186   1.928       .  S
C2172      C2175   1.494   1_565  S
C2172      C2173   1.411       .  A
C2173      C2174   1.412       .  A
C2173     Br2181   1.929   1_565  S
C2174     Br2185   1.931       .  S
C2175      C2176   1.411       .  A
C2175      C2180   1.410       .  A
C2176      C2177   1.411       .  A
C2176     Br2187   1.928       .  S
C2177      C2178   1.410       .  A
C2177     Br2183   1.927       .  S
C2178      C2179   1.412       .  A
C2179      C2180   1.411       .  A
C2179     Br2188   1.930       .  S
C2180     Br2184   1.928       .  S
C2189      C2190   1.418       .  A
C2189      C2194   1.418       .  A
C2190      C2191   1.413       .  A
C2190     Br2202   1.931       .  S
C2191      C2192   1.408       .  A
C2191     Br2206   1.929       .  S
C2192      C2195   1.491       .  S
C2192      C2193   1.408       .  A
C2193      C2194   1.409       .  A
C2193     Br2201   1.933       .  S
C2194     Br2205   1.933       .  S
C2195      C2196   1.411       .  A
C2195      C2200   1.410       .  A
C2196      C2197   1.413       .  A
C2196     Br2207   1.928       .  S
C2197      C2198   1.411       .  A
C2197     Br2203   1.928       .  S
C2198      C2199   1.411       .  A
C2199      C2200   1.407       .  A
C2199     Br2208   1.932       .  S
C2200     Br2204   1.931       .  S
C2209      C2210   1.420       .  A
C2209      C2214   1.419       .  A
C2210      C2211   1.411       .  A
C2210     Br2222   1.932       .  S
C2211      C2212   1.406       .  A
C2211     Br2226   1.930       .  S
C2212      C2215   1.491       .  S
C2212      C2213   1.408       .  A
C2213      C2214   1.411       .  A
C2213     Br2221   1.931       .  S
C2214     Br2225   1.932       .  S
C2215      C2216   1.410       .  A
C2215      C2220   1.411       .  A
C2216      C2217   1.411       .  A
C2216     Br2227   1.928       .  S
C2217      C2218   1.410       .  A
C2217     Br2223   1.928       .  S
C2218      C2219   1.409       .  A
C2219      C2220   1.408       .  A
C2219     Br2228   1.931       .  S
C2220     Br2224   1.930       .  S
C2229      C2230   1.412       .  A
C2229      C2234   1.414       .  A
C2230      C2231   1.411       .  A
C2230     Br2242   1.930       .  S
C2231      C2232   1.410       .  A
C2231     Br2246   1.927       .  S
C2232      C2235   1.493       .  S
C2232      C2233   1.410       .  A
C2233      C2234   1.410       .  A
C2233     Br2241   1.931       .  S
C2234     Br2245   1.932       .  S
C2235      C2236   1.408       .  A
C2235      C2240   1.408       .  A
C2236      C2237   1.413       .  A
C2236     Br2247   1.929       .  S
C2237      C2238   1.417       .  A
C2237     Br2243   1.929       .  S
C2238      C2239   1.418       .  A
C2239      C2240   1.410       .  A
C2239     Br2248   1.933       .  S
C2240     Br2244   1.931       .  S
C2249      C2250   1.410       .  A
C2249      C2254   1.410       .  A
C2250      C2251   1.409       .  A
C2250     Br2262   1.930       .  S
C2251      C2252   1.411       .  A
C2251     Br2266   1.930       .  S
C2252      C2255   1.485       .  S
C2252      C2253   1.410       .  A
C2253      C2254   1.406       .  A
C2253     Br2261   1.930       .  S
C2254     Br2265   1.932       .  S
C2255      C2256   1.408       .  A
C2255      C2260   1.409       .  A
C2256      C2257   1.405       .  A
C2256     Br2267   1.933       .  S
C2257      C2258   1.415       .  A
C2257     Br2263   1.934       .  S
C2258      C2259   1.414       .  A
C2259      C2260   1.410       .  A
C2259     Br2268   1.930       .  S
C2260     Br2264   1.929       .  S
C2269      C2270   1.417       .  A
C2269      C2274   1.412       .  A
C2270      C2271   1.409       .  A
C2270     Br2282   1.933       .  S
C2271      C2272   1.409       .  A
C2271     Br2286   1.931       .  S
C2272      C2275   1.489       .  S
C2272      C2273   1.409       .  A
C2273      C2274   1.408       .  A
C2273     Br2281   1.929       .  S
C2274     Br2285   1.931       .  S
C2275      C2276   1.409       .  A
C2275      C2280   1.408       .  A
C2276      C2277   1.408       .  A
C2276     Br2287   1.932       .  S
C2277      C2278   1.416       .  A
C2277     Br2283   1.932       .  S
C2278      C2279   1.419       .  A
C2279      C2280   1.411       .  A
C2279     Br2288   1.933       .  S
C2280     Br2284   1.931       .  S
C2289      C2290   1.419       .  A
C2289      C2294   1.419       .  A
C2290      C2291   1.411       .  A
C2290     Br2302   1.933       .  S
C2291      C2292   1.409       .  A
C2291     Br2306   1.931       .  S
C2292      C2295   1.491       .  S
C2292      C2293   1.406       .  A
C2293      C2294   1.411       .  A
C2293     Br2301   1.929       .  S
C2294     Br2305   1.932       .  S
C2295      C2296   1.410       .  A
C2295      C2300   1.411       .  A
C2296      C2297   1.406       .  A
C2296     Br2307   1.931       .  S
C2297      C2298   1.409       .  A
C2297     Br2303   1.931       .  S
C2298      C2299   1.411       .  A
C2299      C2300   1.414       .  A
C2299     Br2308   1.926       .  S
C2300     Br2304   1.926       .  S
C2309      C2310   1.414       .  A
C2309      C2314   1.412       .  A
C2310      C2311   1.409       .  A
C2310     Br2322   1.933       .  S
C2311      C2312   1.410       .  A
C2311     Br2326   1.931       .  S
C2312      C2315   1.494       .  S
C2312      C2313   1.411       .  A
C2313      C2314   1.413       .  A
C2313     Br2321   1.928       .  S
C2314     Br2325   1.929       .  S
C2315      C2316   1.410       .  A
C2315      C2320   1.409       .  A
C2316      C2317   1.413       .  A
C2316     Br2327   1.929       .  S
C2317      C2318   1.413       .  A
C2317     Br2323   1.929       .  S
C2318      C2319   1.416       .  A
C2319      C2320   1.410       .  A
C2319     Br2328   1.931       .  S
C2320     Br2324   1.932       .  S
C2329      C2330   1.416       .  A
C2329      C2334   1.415       .  A
C2330      C2331   1.411       .  A
C2330     Br2342   1.930       .  S
C2331      C2332   1.409       .  A
C2331     Br2346   1.930       .  S
C2332      C2335   1.498       .  S
C2332      C2333   1.411       .  A
C2333      C2334   1.415       .  A
C2333     Br2341   1.929       .  S
C2334     Br2345   1.929       .  S
C2335      C2336   1.411       .  A
C2335      C2340   1.409       .  A
C2336      C2337   1.415       .  A
C2336     Br2347   1.929       .  S
C2337      C2338   1.415       .  A
C2337     Br2343   1.929       .  S
C2338      C2339   1.417       .  A
C2339      C2340   1.412       .  A
C2339     Br2348   1.932       .  S
C2340     Br2344   1.931       .  S
C2349      C2350   1.419       .  A
C2349      C2354   1.418       .  A
C2350      C2351   1.410       .  A
C2350     Br2362   1.932       .  S
C2351      C2352   1.407       .  A
C2351     Br2366   1.931       .  S
C2352      C2355   1.490       .  S
C2352      C2353   1.408       .  A
C2353      C2354   1.410       .  A
C2353     Br2361   1.931       .  S
C2354     Br2365   1.932       .  S
C2355      C2356   1.407       .  A
C2355      C2360   1.411       .  A
C2356      C2357   1.408       .  A
C2356     Br2367   1.931       .  S
C2357      C2358   1.416       .  A
C2357     Br2363   1.933       .  S
C2358      C2359   1.412       .  A
C2359      C2360   1.411       .  A
C2359     Br2368   1.929       .  S
C2360     Br2364   1.930       .  S
C2369      C2370   1.410       .  A
C2369      C2374   1.409       .  A
C2370      C2371   1.412       .  A
C2370     Br2382   1.930       .  S
C2371      C2372   1.412       .  A
C2371     Br2386   1.928       .  S
C2372      C2375   1.493       .  S
C2372      C2373   1.411       .  A
C2373      C2374   1.407       .  A
C2373     Br2381   1.930       .  S
C2374     Br2385   1.931       .  S
C2375      C2376   1.407       .  A
C2375      C2380   1.410       .  A
C2376      C2377   1.410       .  A
C2376     Br2387   1.931       .  S
C2377      C2378   1.417       .  A
C2377     Br2383   1.931       .  S
C2378      C2379   1.419       .  A
C2379      C2380   1.412       .  A
C2379     Br2388   1.933       .  S
C2380     Br2384   1.933       .  S
C2389      C2390   1.409       .  A
C2389      C2394   1.406       .  A
C2390      C2391   1.408       .  A
C2390     Br2402   1.930       .  S
C2391      C2392   1.410       .  A
C2391     Br2406   1.928       .  S
C2392      C2395   1.487       .  S
C2392      C2393   1.412       .  A
C2393      C2394   1.407       .  A
C2393     Br2401   1.930       .  S
C2394     Br2405   1.929       .  S
C2395      C2396   1.407       .  A
C2395      C2400   1.410       .  A
C2396      C2397   1.410       .  A
C2396     Br2407   1.931       .  S
C2397      C2398   1.416       .  A
C2397     Br2403   1.929       .  S
C2398      C2399   1.416       .  A
C2399      C2400   1.409       .  A
C2399     Br2408   1.933       .  S
C2400     Br2404   1.933       .  S
C2409      C2410   1.413       .  A
C2409      C2414   1.409       .  A
C2410      C2411   1.411       .  A
C2410     Br2422   1.931       .  S
C2411      C2412   1.412       .  A
C2411     Br2426   1.930       .  S
C2412      C2415   1.495       .  S
C2412      C2413   1.412       .  A
C2413      C2414   1.410       .  A
C2413     Br2421   1.929       .  S
C2414     Br2425   1.930       .  S
C2415      C2416   1.411       .  A
C2415      C2420   1.413       .  A
C2416      C2417   1.410       .  A
C2416     Br2427   1.929       .  S
C2417      C2418   1.412       .  A
C2417     Br2423   1.931       .  S
C2418      C2419   1.410       .  A
C2419      C2420   1.411       .  A
C2419     Br2428   1.930       .  S
C2420     Br2424   1.930       .  S
C2429      C2430   1.416       .  A
C2429      C2434   1.416       .  A
C2430      C2431   1.413       .  A
C2430     Br2442   1.931       .  S
C2431      C2432   1.411       .  A
C2431     Br2446   1.931       .  S
C2432      C2435   1.496       .  S
C2432      C2433   1.410       .  A
C2433      C2434   1.411       .  A
C2433     Br2441   1.930       .  S
C2434     Br2445   1.932       .  S
C2435      C2436   1.410       .  A
C2435      C2440   1.412       .  A
C2436      C2437   1.410       .  A
C2436     Br2447   1.932       .  S
C2437      C2438   1.413   1_545  A
C2437     Br2443   1.929   1_545  S
C2438      C2439   1.414   1_565  A
C2439      C2440   1.414       .  A
C2439     Br2448   1.930   1_545  S
C2440     Br2444   1.929       .  S
C2449      C2450   1.409       .  A
C2449      C2454   1.407   1_565  A
C2450      C2451   1.404       .  A
C2450     Br2462   1.929       .  S
C2451      C2452   1.408       .  A
C2451     Br2466   1.929       .  S
C2452      C2455   1.483   1_565  S
C2452      C2453   1.411   1_565  A
C2453      C2454   1.408       .  A
C2453     Br2461   1.928       .  S
C2454     Br2465   1.929       .  S
C2455      C2456   1.409       .  A
C2455      C2460   1.409   1_545  A
C2456      C2457   1.408       .  A
C2456     Br2467   1.930       .  S
C2457      C2458   1.412       .  A
C2457     Br2463   1.931       .  S
C2458      C2459   1.408       .  A
C2459      C2460   1.406   1_545  A
C2459     Br2468   1.928   1_545  S
C2460     Br2464   1.929       .  S
C2469      C2470   1.410       .  A
C2469      C2474   1.408       .  A
C2470      C2471   1.411       .  A
C2470     Br2482   1.929       .  S
C2471      C2472   1.411       .  A
C2471     Br2486   1.929       .  S
C2472      C2475   1.491       .  S
C2472      C2473   1.409       .  A
C2473      C2474   1.409       .  A
C2473     Br2481   1.926       .  S
C2474     Br2485   1.927       .  S
C2475      C2476   1.410       .  A
C2475      C2480   1.406       .  A
C2476      C2477   1.410       .  A
C2476     Br2487   1.933       .  S
C2477      C2478   1.417       .  A
C2477     Br2483   1.933       .  S
C2478      C2479   1.418       .  A
C2479      C2480   1.412       .  A
C2479     Br2488   1.931       .  S
C2480     Br2484   1.928       .  S
C2489      C2490   1.416       .  A
C2489      C2494   1.417   1_545  A
C2490      C2491   1.413       .  A
C2490     Br2502   1.930       .  S
C2491      C2492   1.409   1_545  A
C2491     Br2506   1.929       .  S
C2492      C2495   1.496       .  S
C2492      C2493   1.409       .  A
C2493      C2494   1.412       .  A
C2493     Br2501   1.930       .  S
C2494     Br2505   1.931       .  S
C2495      C2496   1.411       .  A
C2495      C2500   1.409       .  A
C2496      C2497   1.414       .  A
C2496     Br2507   1.928       .  S
C2497      C2498   1.413       .  A
C2497     Br2503   1.928       .  S
C2498      C2499   1.415       .  A
C2499      C2500   1.411       .  A
C2499     Br2508   1.930       .  S
C2500     Br2504   1.931       .  S
C2509      C2510   1.413       .  A
C2509      C2514   1.414       .  A
C2510      C2511   1.412       .  A
C2510     Br2522   1.930       .  S
C2511      C2512   1.410       .  A
C2511     Br2526   1.929       .  S
C2512      C2515   1.489       .  S
C2512      C2513   1.407       .  A
C2513      C2514   1.407       .  A
C2513     Br2521   1.932       .  S
C2514     Br2525   1.929       .  S
C2515      C2516   1.409       .  A
C2515      C2520   1.409       .  A
C2516      C2517   1.407       .  A
C2516     Br2527   1.931       .  S
C2517      C2518   1.412       .  A
C2517     Br2523   1.932       .  S
C2518      C2519   1.412       .  A
C2519      C2520   1.411       .  A
C2519     Br2528   1.927       .  S
C2520     Br2524   1.928       .  S
C2529      C2530   1.424       .  A
C2529      C2534   1.423       .  A
C2530      C2531   1.408       .  A
C2530     Br2542   1.936       .  S
C2531      C2532   1.405       .  A
C2531     Br2546   1.935       .  S
C2532      C2535   1.486       .  S
C2532      C2533   1.406       .  A
C2533      C2534   1.411       .  A
C2533     Br2541   1.933       .  S
C2534     Br2545   1.933       .  S
C2535      C2536   1.408       .  A
C2535      C2540   1.408       .  A
C2536      C2537   1.408       .  A
C2536     Br2547   1.930       .  S
C2537      C2538   1.415       .  A
C2537     Br2543   1.933       .  S
C2538      C2539   1.419       .  A
C2539      C2540   1.408       .  A
C2539     Br2548   1.933       .  S
C2540     Br2544   1.933       .  S
C2549      C2550   1.414       .  A
C2549      C2554   1.415       .  A
C2550      C2551   1.411       .  A
C2550     Br2562   1.932       .  S
C2551      C2552   1.409       .  A
C2551     Br2566   1.929       .  S
C2552      C2555   1.498       .  S
C2552      C2553   1.411       .  A
C2553      C2554   1.415       .  A
C2553     Br2561   1.929       .  S
C2554     Br2565   1.930       .  S
C2555      C2556   1.411       .  A
C2555      C2560   1.410       .  A
C2556      C2557   1.414       .  A
C2556     Br2567   1.929       .  S
C2557      C2558   1.415       .  A
C2557     Br2563   1.930   1_545  S
C2558      C2559   1.414       .  A
C2559      C2560   1.412       .  A
C2559     Br2568   1.931       .  S
C2560     Br2564   1.930       .  S
C2569      C2570   1.413       .  A
C2569      C2574   1.412       .  A
C2570      C2571   1.410       .  A
C2570     Br2582   1.931       .  S
C2571      C2572   1.411       .  A
C2571     Br2586   1.932       .  S
C2572      C2575   1.491       .  S
C2572      C2573   1.409       .  A
C2573      C2574   1.410       .  A
C2573     Br2581   1.928       .  S
C2574     Br2585   1.929       .  S
C2575      C2576   1.412       .  A
C2575      C2580   1.409       .  A
C2576      C2577   1.411       .  A
C2576     Br2587   1.929       .  S
C2577      C2578   1.410       .  A
C2577     Br2583   1.929       .  S
C2578      C2579   1.409       .  A
C2579      C2580   1.408       .  A
C2579     Br2588   1.928       .  S
C2580     Br2584   1.928       .  S
C2589      C2590   1.415       .  A
C2589      C2594   1.413   1_545  A
C2590      C2591   1.414       .  A
C2590     Br2602   1.930       .  S
C2591      C2592   1.411   1_545  A
C2591     Br2606   1.929       .  S
C2592      C2595   1.496       .  S
C2592      C2593   1.410       .  A
C2593      C2594   1.411       .  A
C2593     Br2601   1.930       .  S
C2594     Br2605   1.931       .  S
C2595      C2596   1.411       .  A
C2595      C2600   1.409       .  A
C2596      C2597   1.415       .  A
C2596     Br2607   1.929       .  S
C2597      C2598   1.416       .  A
C2597     Br2603   1.928       .  S
C2598      C2599   1.417       .  A
C2599      C2600   1.411       .  A
C2599     Br2608   1.933       .  S
C2600     Br2604   1.931       .  S
C2609      C2610   1.417       .  A
C2609      C2614   1.423       .  A
C2610      C2611   1.412   1_655  A
C2610     Br2622   1.930   1_545  S
C2611      C2612   1.408       .  A
C2611     Br2626   1.931   1_545  S
C2612      C2615   1.491       .  S
C2612      C2613   1.406       .  A
C2613      C2614   1.410   1_455  A
C2613     Br2621   1.933       .  S
C2614     Br2625   1.935       .  S
C2615      C2616   1.405   1_545  A
C2615      C2620   1.407       .  A
C2616      C2617   1.410       .  A
C2616     Br2627   1.934       .  S
C2617      C2618   1.426       .  A
C2617     Br2623   1.937       .  S
C2618      C2619   1.421   1_565  A
C2619      C2620   1.412       .  A
C2619     Br2628   1.934       .  S
C2620     Br2624   1.930       .  S
C2629      C2630   1.413       .  A
C2629      C2634   1.413       .  A
C2630      C2631   1.402       .  A
C2630     Br2642   1.933       .  S
C2631      C2632   1.406       .  A
C2631     Br2646   1.932       .  S
C2632      C2635   1.481       .  S
C2632      C2633   1.409       .  A
C2633      C2634   1.410       .  A
C2633     Br2641   1.929       .  S
C2634     Br2645   1.929       .  S
C2635      C2636   1.410       .  A
C2635      C2640   1.409       .  A
C2636      C2637   1.409       .  A
C2636     Br2647   1.927       .  S
C2637      C2638   1.408       .  A
C2637     Br2643   1.928       .  S
C2638      C2639   1.409       .  A
C2639      C2640   1.404       .  A
C2639     Br2648   1.930       .  S
C2640     Br2644   1.933       .  S
C2649      C2650   1.410       .  A
C2649      C2654   1.413       .  A
C2650      C2651   1.410       .  A
C2650     Br2662   1.929   1_554  S
C2651      C2652   1.409       .  A
C2651     Br2666   1.927       .  S
C2652      C2655   1.489       .  S
C2652      C2653   1.410       .  A
C2653      C2654   1.408       .  A
C2653     Br2661   1.932       .  S
C2654     Br2665   1.932       .  S
C2655      C2656   1.407       .  A
C2655      C2660   1.412       .  A
C2656      C2657   1.406       .  A
C2656     Br2667   1.931   1_554  S
C2657      C2658   1.414       .  A
C2657     Br2663   1.930       .  S
C2658      C2659   1.412       .  A
C2659      C2660   1.413       .  A
C2659     Br2668   1.929       .  S
C2660     Br2664   1.929       .  S
C2669      C2670   1.419       .  A
C2669      C2674   1.424       .  A
C2670      C2671   1.409       .  A
C2670     Br2682   1.934       .  S
C2671      C2672   1.408       .  A
C2671     Br2686   1.932       .  S
C2672      C2675   1.483       .  S
C2672      C2673   1.404       .  A
C2673      C2674   1.405       .  A
C2673     Br2681   1.935       .  S
C2674     Br2685   1.938       .  S
C2675      C2676   1.406       .  A
C2675      C2680   1.405       .  A
C2676      C2677   1.406       .  A
C2676     Br2687   1.935       .  S
C2677      C2678   1.422       .  A
C2677     Br2683   1.936       .  S
C2678      C2679   1.421       .  A
C2679      C2680   1.408       .  A
C2679     Br2688   1.931       .  S
C2680     Br2684   1.933       .  S
C2689      C2690   1.410       .  A
C2689      C2694   1.409       .  A
C2690      C2691   1.409       .  A
C2690     Br2702   1.929       .  S
C2691      C2692   1.409       .  A
C2691     Br2706   1.928       .  S
C2692      C2695   1.481       .  S
C2692      C2693   1.409       .  A
C2693      C2694   1.403       .  A
C2693     Br2701   1.931       .  S
C2694     Br2705   1.932       .  S
C2695      C2696   1.405       .  A
C2695      C2700   1.409       .  A
C2696      C2697   1.407       .  A
C2696     Br2707   1.931       .  S
C2697      C2698   1.416       .  A
C2697     Br2703   1.930       .  S
C2698      C2699   1.411       .  A
C2699      C2700   1.408       .  A
C2699     Br2708   1.929       .  S
C2700     Br2704   1.931       .  S
C2709      C2710   1.410       .  A
C2709      C2714   1.409       .  A
C2710      C2711   1.412       .  A
C2710     Br2722   1.930       .  S
C2711      C2712   1.412       .  A
C2711     Br2726   1.927       .  S
C2712      C2715   1.487       .  S
C2712      C2713   1.408       .  A
C2713      C2714   1.403       .  A
C2713     Br2721   1.931       .  S
C2714     Br2725   1.930       .  S
C2715      C2716   1.405       .  A
C2715      C2720   1.409       .  A
C2716      C2717   1.409       .  A
C2716     Br2727   1.930       .  S
C2717      C2718   1.420       .  A
C2717     Br2723   1.932       .  S
C2718      C2719   1.420       .  A
C2719      C2720   1.410       .  A
C2719     Br2728   1.934       .  S
C2720     Br2724   1.934       .  S
C2729      C2730   1.414       .  A
C2729      C2734   1.411       .  A
C2730      C2731   1.413       .  A
C2730     Br2742   1.930       .  S
C2731      C2732   1.410       .  A
C2731     Br2746   1.930       .  S
C2732      C2735   1.497       .  S
C2732      C2733   1.411       .  A
C2733      C2734   1.413       .  A
C2733     Br2741   1.928       .  S
C2734     Br2745   1.929       .  S
C2735      C2736   1.408       .  A
C2735      C2740   1.410       .  A
C2736      C2737   1.411       .  A
C2736     Br2747   1.931       .  S
C2737      C2738   1.419       .  A
C2737     Br2743   1.933       .  S
C2738      C2739   1.418       .  A
C2739      C2740   1.415       .  A
C2739     Br2748   1.930       .  S
C2740     Br2744   1.929       .  S
C2749      C2750   1.409       .  A
C2749      C2754   1.409       .  A
C2750      C2751   1.410       .  A
C2750     Br2762   1.928       .  S
C2751      C2752   1.411       .  A
C2751     Br2766   1.929       .  S
C2752      C2755   1.490       .  S
C2752      C2753   1.412       .  A
C2753      C2754   1.408       .  A
C2753     Br2761   1.931       .  S
C2754     Br2765   1.930       .  S
C2755      C2756   1.411       .  A
C2755      C2760   1.410       .  A
C2756      C2757   1.412       .  A
C2756     Br2767   1.928       .  S
C2757      C2758   1.412       .  A
C2757     Br2763   1.929       .  S
C2758      C2759   1.413       .  A
C2759      C2760   1.406       .  A
C2759     Br2768   1.933       .  S
C2760     Br2764   1.933       .  S
C2769      C2770   1.417       .  A
C2769      C2774   1.417       .  A
C2770      C2771   1.411       .  A
C2770     Br2782   1.932       .  S
C2771      C2772   1.409       .  A
C2771     Br2786   1.932       .  S
C2772      C2775   1.492       .  S
C2772      C2773   1.407       .  A
C2773      C2774   1.411       .  A
C2773     Br2781   1.929       .  S
C2774     Br2785   1.932       .  S
C2775      C2776   1.411       .  A
C2775      C2780   1.411       .  A
C2776      C2777   1.408       .  A
C2776     Br2787   1.930       .  S
C2777      C2778   1.409       .  A
C2777     Br2783   1.930       .  S
C2778      C2779   1.408       .  A
C2779      C2780   1.411       .  A
C2779     Br2788   1.928       .  S
C2780     Br2784   1.926       .  S
C2789      C2790   1.412       .  A
C2789      C2794   1.409       .  A
C2790      C2791   1.409       .  A
C2790     Br2802   1.931       .  S
C2791      C2792   1.409       .  A
C2791     Br2806   1.929       .  S
C2792      C2795   1.490       .  S
C2792      C2793   1.411       .  A
C2793      C2794   1.411       .  A
C2793     Br2801   1.929       .  S
C2794     Br2805   1.928       .  S
C2795      C2796   1.409       .  A
C2795      C2800   1.411       .  A
C2796      C2797   1.409       .  A
C2796     Br2807   1.928       .  S
C2797      C2798   1.412       .  A
C2797     Br2803   1.931       .  S
C2798      C2799   1.409       .  A
C2799      C2800   1.410       .  A
C2799     Br2808   1.928       .  S
C2800     Br2804   1.929       .  S
C2809      C2810   1.414       .  A
C2809      C2814   1.415       .  A
C2810      C2811   1.411       .  A
C2810     Br2822   1.930       .  S
C2811      C2812   1.408       .  A
C2811     Br2826   1.927       .  S
C2812      C2815   1.490       .  S
C2812      C2813   1.409       .  A
C2813      C2814   1.408       .  A
C2813     Br2821   1.932       .  S
C2814     Br2825   1.932       .  S
C2815      C2816   1.410       .  A
C2815      C2820   1.411       .  A
C2816      C2817   1.413       .  A
C2816     Br2827   1.927       .  S
C2817      C2818   1.411       .  A
C2817     Br2823   1.928       .  S
C2818      C2819   1.409       .  A
C2819      C2820   1.406       .  A
C2819     Br2828   1.932       .  S
C2820     Br2824   1.930       .  S
C2829      C2830   1.415       .  A
C2829      C2834   1.417       .  A
C2830      C2831   1.413       .  A
C2830     Br2842   1.929       .  S
C2831      C2832   1.410       .  A
C2831     Br2846   1.929       .  S
C2832      C2835   1.497       .  S
C2832      C2833   1.410       .  A
C2833      C2834   1.412       .  A
C2833     Br2841   1.932       .  S
C2834     Br2845   1.931       .  S
C2835      C2836   1.412       .  A
C2835      C2840   1.413       .  A
C2836      C2837   1.413       .  A
C2836     Br2847   1.928       .  S
C2837      C2838   1.411       .  A
C2837     Br2843   1.929       .  S
C2838      C2839   1.410       .  A
C2839      C2840   1.409       .  A
C2839     Br2848   1.932       .  S
C2840     Br2844   1.931       .  S
C2849      C2850   1.417       .  A
C2849      C2854   1.416       .  A
C2850      C2851   1.413       .  A
C2850     Br2862   1.932       .  S
C2851      C2852   1.410       .  A
C2851     Br2866   1.931       .  S
C2852      C2855   1.499       .  S
C2852      C2853   1.410       .  A
C2853      C2854   1.415       .  A
C2853     Br2861   1.928       .  S
C2854     Br2865   1.930       .  S
C2855      C2856   1.411       .  A
C2855      C2860   1.410       .  A
C2856      C2857   1.416       .  A
C2856     Br2867   1.929       .  S
C2857      C2858   1.415       .  A
C2857     Br2863   1.928       .  S
C2858      C2859   1.414       .  A
C2859      C2860   1.412       .  A
C2859     Br2868   1.929       .  S
C2860     Br2864   1.930       .  S
C2869      C2870   1.418       .  A
C2869      C2874   1.416       .  A
C2870      C2871   1.404       .  A
C2870     Br2882   1.934       .  S
C2871      C2872   1.406       .  A
C2871     Br2886   1.935       .  S
C2872      C2875   1.485       .  S
C2872      C2873   1.409       .  A
C2873      C2874   1.412       .  A
C2873     Br2881   1.929       .  S
C2874     Br2885   1.930       .  S
C2875      C2876   1.410       .  A
C2875      C2880   1.409       .  A
C2876      C2877   1.411       .  A
C2876     Br2887   1.928       .  S
C2877      C2878   1.410       .  A
C2877     Br2883   1.926       .  S
C2878      C2879   1.410       .  A
C2879      C2880   1.404       .  A
C2879     Br2888   1.931       .  S
C2880     Br2884   1.933       .  S
C2889      C2890   1.417       .  A
C2889      C2894   1.415       .  A
C2890      C2891   1.413       .  A
C2890     Br2902   1.932       .  S
C2891      C2892   1.410       .  A
C2891     Br2906   1.930       .  S
C2892      C2895   1.495   1_565  S
C2892      C2893   1.409       .  A
C2893      C2894   1.409       .  A
C2893     Br2901   1.929   1_565  S
C2894     Br2905   1.932       .  S
C2895      C2896   1.407       .  A
C2895      C2900   1.410       .  A
C2896      C2897   1.411       .  A
C2896     Br2907   1.933   1_556  S
C2897      C2898   1.421       .  A
C2897     Br2903   1.931   1_556  S
C2898      C2899   1.416       .  A
C2899      C2900   1.414       .  A
C2899     Br2908   1.930       .  S
C2900     Br2904   1.929       .  S
C2909      C2910   1.408       .  A
C2909      C2914   1.409       .  A
C2910      C2911   1.403       .  A
C2910     Br2922   1.930       .  S
C2911      C2912   1.407       .  A
C2911     Br2926   1.930       .  S
C2912      C2915   1.478       .  S
C2912      C2913   1.409       .  A
C2913      C2914   1.407       .  A
C2913     Br2921   1.930       .  S
C2914     Br2925   1.930       .  S
C2915      C2916   1.405       .  A
C2915      C2920   1.408       .  A
C2916      C2917   1.406       .  A
C2916     Br2927   1.929       .  S
C2917      C2918   1.413       .  A
C2917     Br2923   1.929       .  S
C2918      C2919   1.415       .  A
C2919      C2920   1.405       .  A
C2919     Br2928   1.934       .  S
C2920     Br2924   1.934       .  S
C2929      C2930   1.414       .  A
C2929      C2934   1.415       .  A
C2930      C2931   1.411   1_554  A
C2930     Br2942   1.930       .  S
C2931      C2932   1.409       .  A
C2931     Br2946   1.928       .  S
C2932      C2935   1.491       .  S
C2932      C2933   1.408   1_556  A
C2933      C2934   1.409       .  A
C2933     Br2941   1.931       .  S
C2934     Br2945   1.930       .  S
C2935      C2936   1.408       .  A
C2935      C2940   1.409       .  A
C2936      C2937   1.408       .  A
C2936     Br2947   1.931       .  S
C2937      C2938   1.413       .  A
C2937     Br2943   1.929       .  S
C2938      C2939   1.415       .  A
C2939      C2940   1.413       .  A
C2939     Br2948   1.929       .  S
C2940     Br2944   1.929       .  S
C2949      C2950   1.409       .  A
C2949      C2954   1.410       .  A
C2950      C2951   1.408       .  A
C2950     Br2962   1.929       .  S
C2951      C2952   1.409       .  A
C2951     Br2966   1.929       .  S
C2952      C2955   1.485       .  S
C2952      C2953   1.410       .  A
C2953      C2954   1.408       .  A
C2953     Br2961   1.931       .  S
C2954     Br2965   1.929       .  S
C2955      C2956   1.408       .  A
C2955      C2960   1.408       .  A
C2956      C2957   1.411       .  A
C2956     Br2967   1.929       .  S
C2957      C2958   1.416       .  A
C2957     Br2963   1.931       .  S
C2958      C2959   1.415       .  A
C2959      C2960   1.405       .  A
C2959     Br2968   1.933       .  S
C2960     Br2964   1.934       .  S
C2969      C2970   1.415       .  A
C2969      C2974   1.415       .  A
C2970      C2971   1.406       .  A
C2970     Br2982   1.934       .  S
C2971      C2972   1.407       .  A
C2971     Br2986   1.931       .  S
C2972      C2975   1.493   1_554  S
C2972      C2973   1.411       .  A
C2973      C2974   1.416       .  A
C2973     Br2981   1.928   1_554  S
C2974     Br2985   1.929       .  S
C2975      C2976   1.410       .  A
C2975      C2980   1.409       .  A
C2976      C2977   1.412       .  A
C2976     Br2987   1.930   1_556  S
C2977      C2978   1.415       .  A
C2977     Br2983   1.932       .  S
C2978      C2979   1.414       .  A
C2979      C2980   1.412       .  A
C2979     Br2988   1.929       .  S
C2980     Br2984   1.929       .  S
C2989      C2990   1.417       .  A
C2989      C2994   1.415       .  A
C2990      C2991   1.410       .  A
C2990     Br3002   1.932       .  S
C2991      C2992   1.408       .  A
C2991     Br3006   1.930       .  S
C2992      C2995   1.488       .  S
C2992      C2993   1.408       .  A
C2993      C2994   1.408       .  A
C2993     Br3001   1.929       .  S
C2994     Br3005   1.933       .  S
C2995      C2996   1.408       .  A
C2995      C3000   1.410       .  A
C2996      C2997   1.409       .  A
C2996     Br3007   1.930       .  S
C2997      C2998   1.414       .  A
C2997     Br3003   1.929       .  S
C2998      C2999   1.411       .  A
C2999      C3000   1.410       .  A
C2999     Br3008   1.928       .  S
C3000     Br3004   1.930       .  S
C3009      C3010   1.413       .  A
C3009      C3014   1.412       .  A
C3010      C3011   1.410       .  A
C3010     Br3022   1.932       .  S
C3011      C3012   1.410       .  A
C3011     Br3026   1.931       .  S
C3012      C3015   1.489       .  S
C3012      C3013   1.408       .  A
C3013      C3014   1.410       .  A
C3013     Br3021   1.928       .  S
C3014     Br3025   1.928       .  S
C3015      C3016   1.411       .  A
C3015      C3020   1.410       .  A
C3016      C3017   1.409       .  A
C3016     Br3027   1.928       .  S
C3017      C3018   1.408       .  A
C3017     Br3023   1.928       .  S
C3018      C3019   1.409       .  A
C3019      C3020   1.409       .  A
C3019     Br3028   1.929       .  S
C3020     Br3024   1.928       .  S
C3029      C3030   1.412       .  A
C3029      C3034   1.411       .  A
C3030      C3031   1.409       .  A
C3030     Br3042   1.933       .  S
C3031      C3032   1.411       .  A
C3031     Br3046   1.932       .  S
C3032      C3035   1.491       .  S
C3032      C3033   1.410       .  A
C3033      C3034   1.410       .  A
C3033     Br3041   1.927       .  S
C3034     Br3045   1.930       .  S
C3035      C3036   1.412       .  A
C3035      C3040   1.410       .  A
C3036      C3037   1.411       .  A
C3036     Br3047   1.930       .  S
C3037      C3038   1.411       .  A
C3037     Br3043   1.929       .  S
C3038      C3039   1.410       .  A
C3039      C3040   1.409       .  A
C3039     Br3048   1.928       .  S
C3040     Br3044   1.929       .  S
C3049      C3050   1.419       .  A
C3049      C3054   1.414       .  A
C3050      C3051   1.410   1_554  A
C3050     Br3062   1.931       .  S
C3051      C3052   1.409       .  A
C3051     Br3066   1.933       .  S
C3052      C3055   1.490       .  S
C3052      C3053   1.409       .  A
C3053      C3054   1.409   1_556  A
C3053     Br3061   1.931       .  S
C3054     Br3065   1.932       .  S
C3055      C3056   1.408       .  A
C3055      C3060   1.409       .  A
C3056      C3057   1.409       .  A
C3056     Br3067   1.932       .  S
C3057      C3058   1.418       .  A
C3057     Br3063   1.933       .  S
C3058      C3059   1.418       .  A
C3059      C3060   1.410       .  A
C3059     Br3068   1.933       .  S
C3060     Br3064   1.932       .  S
C3069      C3070   1.415       .  A
C3069      C3074   1.413       .  A
C3070      C3071   1.409       .  A
C3070     Br3082   1.933       .  S
C3071      C3072   1.409       .  A
C3071     Br3086   1.931       .  S
C3072      C3075   1.488       .  S
C3072      C3073   1.407       .  A
C3073      C3074   1.409       .  A
C3073     Br3081   1.928       .  S
C3074     Br3085   1.930       .  S
C3075      C3076   1.411       .  A
C3075      C3080   1.408       .  A
C3076      C3077   1.410       .  A
C3076     Br3087   1.931       .  S
C3077      C3078   1.409       .  A
C3077     Br3083   1.929       .  S
C3078      C3079   1.410       .  A
C3079      C3080   1.408       .  A
C3079     Br3088   1.930       .  S
C3080     Br3084   1.928       .  S
C3089      C3090   1.423       .  A
C3089      C3094   1.423       .  A
C3090      C3091   1.409       .  A
C3090     Br3102   1.935       .  S
C3091      C3092   1.406       .  A
C3091     Br3106   1.934       .  S
C3092      C3095   1.486       .  S
C3092      C3093   1.404       .  A
C3093      C3094   1.410       .  A
C3093     Br3101   1.931       .  S
C3094     Br3105   1.933       .  S
C3095      C3096   1.408       .  A
C3095      C3100   1.411       .  A
C3096      C3097   1.403       .  A
C3096     Br3107   1.931       .  S
C3097      C3098   1.409       .  A
C3097     Br3103   1.931       .  S
C3098      C3099   1.410       .  A
C3099      C3100   1.412       .  A
C3099     Br3108   1.927       .  S
C3100     Br3104   1.928       .  S
C3109      C3110   1.411       .  A
C3109      C3114   1.412       .  A
C3110      C3111   1.412       .  A
C3110     Br3122   1.927       .  S
C3111      C3112   1.410       .  A
C3111     Br3126   1.928       .  S
C3112      C3115   1.491       .  S
C3112      C3113   1.410       .  A
C3113      C3114   1.410       .  A
C3113     Br3121   1.930       .  S
C3114     Br3125   1.930       .  S
C3115      C3116   1.409       .  A
C3115      C3120   1.409       .  A
C3116      C3117   1.409       .  A
C3116     Br3127   1.930       .  S
C3117      C3118   1.416       .  A
C3117     Br3123   1.933       .  S
C3118      C3119   1.416       .  A
C3119      C3120   1.411       .  A
C3119     Br3128   1.931       .  S
C3120     Br3124   1.929       .  S
C3129      C3130   1.413       .  A
C3129      C3134   1.409       .  A
C3130      C3131   1.410       .  A
C3130     Br3142   1.932       .  S
C3131      C3132   1.410       .  A
C3131     Br3146   1.929       .  S
C3132      C3135   1.490       .  S
C3132      C3133   1.410       .  A
C3133      C3134   1.407       .  A
C3133     Br3141   1.932       .  S
C3134     Br3145   1.922       .  S
C3135      C3136   1.410       .  A
C3135      C3140   1.412       .  A
C3136      C3137   1.409       .  A
C3136     Br3147   1.930       .  S
C3137      C3138   1.411       .  A
C3137     Br3143   1.931       .  S
C3138      C3139   1.408       .  A
C3139      C3140   1.409       .  A
C3139     Br3148   1.929       .  S
C3140     Br3144   1.930       .  S
C3149      C3150   1.409       .  A
C3149      C3154   1.410       .  A
C3150      C3151   1.407       .  A
C3150     Br3162   1.930       .  S
C3151      C3152   1.411       .  A
C3151     Br3166   1.932       .  S
C3152      C3155   1.490       .  S
C3152      C3153   1.410       .  A
C3153      C3154   1.411       .  A
C3153     Br3161   1.928       .  S
C3154     Br3165   1.928       .  S
C3155      C3156   1.410       .  A
C3155      C3160   1.409       .  A
C3156      C3157   1.407       .  A
C3156     Br3167   1.932       .  S
C3157      C3158   1.414       .  A
C3157     Br3163   1.934       .  S
C3158      C3159   1.413       .  A
C3159      C3160   1.412       .  A
C3159     Br3168   1.929       .  S
C3160     Br3164   1.928       .  S
C3169      C3170   1.412       .  A
C3169      C3174   1.412       .  A
C3170      C3171   1.411       .  A
C3170     Br3182   1.929       .  S
C3171      C3172   1.409       .  A
C3171     Br3186   1.928       .  S
C3172      C3175   1.489       .  S
C3172      C3173   1.410       .  A
C3173      C3174   1.407       .  A
C3173     Br3181   1.933       .  S
C3174     Br3185   1.932       .  S
C3175      C3176   1.409       .  A
C3175      C3180   1.412       .  A
C3176      C3177   1.405       .  A
C3176     Br3187   1.930       .  S
C3177      C3178   1.411       .  A
C3177     Br3183   1.933       .  S
C3178      C3179   1.409       .  A
C3179      C3180   1.411       .  A
C3179     Br3188   1.928       .  S
C3180     Br3184   1.928       .  S
C3189      C3190   1.409       .  A
C3189      C3194   1.408       .  A
C3190      C3191   1.406       .  A
C3190     Br3202   1.931       .  S
C3191      C3192   1.410       .  A
C3191     Br3206   1.930       .  S
C3192      C3195   1.486       .  S
C3192      C3193   1.410       .  A
C3193      C3194   1.409       .  A
C3193     Br3201   1.928       .  S
C3194     Br3205   1.928       .  S
C3195      C3196   1.408       .  A
C3195      C3200   1.406       .  A
C3196      C3197   1.409       .  A
C3196     Br3207   1.933       .  S
C3197      C3198   1.417       .  A
C3197     Br3203   1.931       .  S
C3198      C3199   1.417       .  A
C3199      C3200   1.408       .  A
C3199     Br3208   1.932       .  S
C3200     Br3204   1.929       .  S
C3209      C3210   1.419       .  A
C3209      C3214   1.418       .  A
C3210      C3211   1.411       .  A
C3210     Br3222   1.933       .  S
C3211      C3212   1.409       .  A
C3211     Br3226   1.932       .  S
C3212      C3215   1.497       .  S
C3212      C3213   1.410       .  A
C3213      C3214   1.414       .  A
C3213     Br3221   1.928       .  S
C3214     Br3225   1.931       .  S
C3215      C3216   1.410       .  A
C3215      C3220   1.412       .  A
C3216      C3217   1.410       .  A
C3216     Br3227   1.931       .  S
C3217      C3218   1.414       .  A
C3217     Br3223   1.931       .  S
C3218      C3219   1.412       .  A
C3219      C3220   1.415       .  A
C3219     Br3228   1.928       .  S
C3220     Br3224   1.928       .  S
C3229      C3230   1.410       .  A
C3229      C3234   1.412       .  A
C3230      C3231   1.409       .  A
C3230     Br3242   1.929       .  S
C3231      C3232   1.410       .  A
C3231     Br3246   1.929       .  S
C3232      C3235   1.491       .  S
C3232      C3233   1.411       .  A
C3233      C3234   1.409       .  A
C3233     Br3241   1.931       .  S
C3234     Br3245   1.931       .  S
C3235      C3236   1.411       .  A
C3235      C3240   1.410       .  A
C3236      C3237   1.410       .  A
C3236     Br3247   1.932       .  S
C3237      C3238   1.412       .  A
C3237     Br3243   1.927       .  S
C3238      C3239   1.412       .  A
C3239      C3240   1.410       .  A
C3239     Br3248   1.930       .  S
C3240     Br3244   1.929       .  S
C3249      C3250   1.408       .  A
C3249      C3254   1.409       .  A
C3250      C3251   1.408       .  A
C3250     Br3262   1.929       .  S
C3251      C3252   1.409       .  A
C3251     Br3266   1.928       .  S
C3252      C3255   1.486       .  S
C3252      C3253   1.411       .  A
C3253      C3254   1.409       .  A
C3253     Br3261   1.930       .  S
C3254     Br3265   1.929       .  S
C3255      C3256   1.408       .  A
C3255      C3260   1.409       .  A
C3256      C3257   1.409       .  A
C3256     Br3267   1.927       .  S
C3257      C3258   1.413       .  A
C3257     Br3263   1.930       .  S
C3258      C3259   1.413       .  A
C3259      C3260   1.407       .  A
C3259     Br3268   1.933       .  S
C3260     Br3264   1.932       .  S
C3269      C3270   1.413       .  A
C3269      C3274   1.413       .  A
C3270      C3271   1.414       .  A
C3270     Br3282   1.928       .  S
C3271      C3272   1.411       .  A
C3271     Br3286   1.929       .  S
C3272      C3275   1.495       .  S
C3272      C3273   1.409       .  A
C3273      C3274   1.410       .  A
C3273     Br3281   1.932       .  S
C3274     Br3285   1.923       .  S
C3275      C3276   1.410       .  A
C3275      C3280   1.408       .  A
C3276      C3277   1.413       .  A
C3276     Br3287   1.929       .  S
C3277      C3278   1.415       .  A
C3277     Br3283   1.931       .  S
C3278      C3279   1.416       .  A
C3279      C3280   1.410       .  A
C3279     Br3288   1.930       .  S
C3280     Br3284   1.931       .  S
C3289      C3290   1.411       .  A
C3289      C3294   1.408       .  A
C3290      C3291   1.409       .  A
C3290     Br3302   1.929       .  S
C3291      C3292   1.409       .  A
C3291     Br3306   1.928       .  S
C3292      C3295   1.488       .  S
C3292      C3293   1.411       .  A
C3293      C3294   1.409       .  A
C3293     Br3301   1.930       .  S
C3294     Br3305   1.930       .  S
C3295      C3296   1.408       .  A
C3295      C3300   1.409       .  A
C3296      C3297   1.412       .  A
C3296     Br3307   1.928       .  S
C3297      C3298   1.415       .  A
C3297     Br3303   1.929       .  S
C3298      C3299   1.413       .  A
C3299      C3300   1.406       .  A
C3299     Br3308   1.932       .  S
C3300     Br3304   1.933       .  S
C3309      C3310   1.415       .  A
C3309      C3314   1.414       .  A
C3310      C3311   1.405       .  A
C3310     Br3322   1.934       .  S
C3311      C3312   1.408       .  A
C3311     Br3326   1.934       .  S
C3312      C3315   1.481       .  S
C3312      C3313   1.406       .  A
C3313      C3314   1.409       .  A
C3313     Br3321   1.929       .  S
C3314     Br3325   1.929       .  S
C3315      C3316   1.409       .  A
C3315      C3320   1.408       .  A
C3316      C3317   1.406       .  A
C3316     Br3327   1.929       .  S
C3317      C3318   1.407       .  A
C3317     Br3323   1.928       .  S
C3318      C3319   1.410       .  A
C3319      C3320   1.406       .  A
C3319     Br3328   1.931       .  S
C3320     Br3324   1.929       .  S
C3329      C3330   1.417       .  A
C3329      C3334   1.417       .  A
C3330      C3331   1.412       .  A
C3330     Br3342   1.931       .  S
C3331      C3332   1.408       .  A
C3331     Br3346   1.929       .  S
C3332      C3335   1.488       .  S
C3332      C3333   1.406       .  A
C3333      C3334   1.407       .  A
C3333     Br3341   1.934       .  S
C3334     Br3345   1.927       .  S
C3335      C3336   1.408       .  A
C3335      C3340   1.407       .  A
C3336      C3337   1.411       .  A
C3336     Br3347   1.930       .  S
C3337      C3338   1.417       .  A
C3337     Br3343   1.931       .  S
C3338      C3339   1.417       .  A
C3339      C3340   1.407       .  A
C3339     Br3348   1.931       .  S
C3340     Br3344   1.932       .  S
C3349      C3350   1.410       .  A
C3349      C3354   1.407       .  A
C3350      C3351   1.407       .  A
C3350     Br3362   1.931       .  S
C3351      C3352   1.408       .  A
C3351     Br3366   1.928       .  S
C3352      C3355   1.481       .  S
C3352      C3353   1.408       .  A
C3353      C3354   1.405       .  A
C3353     Br3361   1.931       .  S
C3354     Br3365   1.922       .  S
C3355      C3356   1.406       .  A
C3355      C3360   1.408       .  A
C3356      C3357   1.406       .  A
C3356     Br3367   1.930       .  S
C3357      C3358   1.413       .  A
C3357     Br3363   1.930       .  S
C3358      C3359   1.412       .  A
C3359      C3360   1.408       .  A
C3359     Br3368   1.927       .  S
C3360     Br3364   1.931       .  S
C3369      C3370   1.417       .  A
C3369      C3374   1.415       .  A
C3370      C3371   1.408       .  A
C3370     Br3382   1.932       .  S
C3371      C3372   1.407       .  A
C3371     Br3386   1.932       .  S
C3372      C3375   1.488       .  S
C3372      C3373   1.408       .  A
C3373      C3374   1.412       .  A
C3373     Br3381   1.929       .  S
C3374     Br3385   1.928       .  S
C3375      C3376   1.412       .  A
C3375      C3380   1.409       .  A
C3376      C3377   1.409       .  A
C3376     Br3387   1.929       .  S
C3377      C3378   1.409       .  A
C3377     Br3383   1.931       .  S
C3378      C3379   1.409       .  A
C3379      C3380   1.408       .  A
C3379     Br3388   1.930       .  S
C3380     Br3384   1.929       .  S
C3389      C3390   1.423       .  A
C3389      C3394   1.423       .  A
C3390      C3391   1.410       .  A
C3390     Br3402   1.933       .  S
C3391      C3392   1.404       .  A
C3391     Br3406   1.931       .  S
C3392      C3395   1.488       .  S
C3392      C3393   1.407       .  A
C3393      C3394   1.411       .  A
C3393     Br3401   1.934       .  S
C3394     Br3405   1.933       .  S
C3395      C3396   1.410       .  A
C3395      C3400   1.408       .  A
C3396      C3397   1.412       .  A
C3396     Br3407   1.927       .  S
C3397      C3398   1.411       .  A
C3397     Br3403   1.928       .  S
C3398      C3399   1.412       .  A
C3399      C3400   1.406       .  A
C3399     Br3408   1.930       .  S
C3400     Br3404   1.933       .  S
C3409      C3410   1.415       .  A
C3409      C3414   1.416       .  A
C3410      C3411   1.406       .  A
C3410     Br3422   1.932       .  S
C3411      C3412   1.408       .  A
C3411     Br3426   1.935       .  S
C3412      C3415   1.484       .  S
C3412      C3413   1.407       .  A
C3413      C3414   1.411       .  A
C3413     Br3421   1.929       .  S
C3414     Br3425   1.930       .  S
C3415      C3416   1.411       .  A
C3415      C3420   1.409       .  A
C3416      C3417   1.407       .  A
C3416     Br3427   1.930       .  S
C3417      C3418   1.407       .  A
C3417     Br3423   1.931       .  S
C3418      C3419   1.407       .  A
C3419      C3420   1.406       .  A
C3419     Br3428   1.931       .  S
C3420     Br3424   1.928       .  S
C3429      C3430   1.415       .  A
C3429      C3434   1.415       .  A
C3430      C3431   1.411       .  A
C3430     Br3442   1.933       .  S
C3431      C3432   1.410       .  A
C3431     Br3446   1.929       .  S
C3432      C3435   1.495       .  S
C3432      C3433   1.410       .  A
C3433      C3434   1.412       .  A
C3433     Br3441   1.930       .  S
C3434     Br3445   1.930       .  S
C3435      C3436   1.411       .  A
C3435      C3440   1.412       .  A
C3436      C3437   1.410       .  A
C3436     Br3447   1.930       .  S
C3437      C3438   1.411       .  A
C3437     Br3443   1.930       .  S
C3438      C3439   1.410       .  A
C3439      C3440   1.413       .  A
C3439     Br3448   1.928       .  S
C3440     Br3444   1.928       .  S
C3449      C3450   1.408       .  A
C3449      C3454   1.408       .  A
C3450      C3451   1.407       .  A
C3450     Br3462   1.930       .  S
C3451      C3452   1.410       .  A
C3451     Br3466   1.929       .  S
C3452      C3455   1.488       .  S
C3452      C3453   1.410       .  A
C3453      C3454   1.409       .  A
C3453     Br3461   1.928       .  S
C3454     Br3465   1.930       .  S
C3455      C3456   1.410       .  A
C3455      C3460   1.408       .  A
C3456      C3457   1.407       .  A
C3456     Br3467   1.932       .  S
C3457      C3458   1.414       .  A
C3457     Br3463   1.934       .  S
C3458      C3459   1.414       .  A
C3459      C3460   1.411       .  A
C3459     Br3468   1.929       .  S
C3460     Br3464   1.929       .  S
C3469      C3470   1.415       .  A
C3469      C3474   1.414       .  A
C3470      C3471   1.407       .  A
C3470     Br3482   1.934       .  S
C3471      C3472   1.410       .  A
C3471     Br3486   1.933       .  S
C3472      C3475   1.485       .  S
C3472      C3473   1.406       .  A
C3473      C3474   1.408       .  A
C3473     Br3481   1.928       .  S
C3474     Br3485   1.930       .  S
C3475      C3476   1.409       .  A
C3475      C3480   1.411       .  A
C3476      C3477   1.404       .  A
C3476     Br3487   1.930       .  S
C3477      C3478   1.408       .  A
C3477     Br3483   1.930       .  S
C3478      C3479   1.410       .  A
C3479      C3480   1.410       .  A
C3479     Br3488   1.929       .  S
C3480     Br3484   1.929       .  S
C3489      C3490   1.412       .  A
C3489      C3494   1.415       .  A
C3490      C3491   1.408       .  A
C3490     Br3502   1.931       .  S
C3491      C3492   1.409       .  A
C3491     Br3506   1.932       .  S
C3492      C3495   1.486       .  S
C3492      C3493   1.407       .  A
C3493      C3494   1.409       .  A
C3493     Br3501   1.929       .  S
C3494     Br3505   1.932       .  S
C3495      C3496   1.410       .  A
C3495      C3500   1.407       .  A
C3496      C3497   1.410       .  A
C3496     Br3507   1.930       .  S
C3497      C3498   1.410       .  A
C3497     Br3503   1.926       .  S
C3498      C3499   1.412       .  A
C3499      C3500   1.407       .  A
C3499     Br3508   1.929       .  S
C3500     Br3504   1.930       .  S
C3509      C3510   1.409       .  A
C3509      C3514   1.409       .  A
C3510      C3511   1.408       .  A
C3510     Br3522   1.930       .  S
C3511      C3512   1.410       .  A
C3511     Br3526   1.929       .  S
C3512      C3515   1.487       .  S
C3512      C3513   1.411       .  A
C3513      C3514   1.409       .  A
C3513     Br3521   1.929       .  S
C3514     Br3525   1.930       .  S
C3515      C3516   1.409       .  A
C3515      C3520   1.410       .  A
C3516      C3517   1.410       .  A
C3516     Br3527   1.928       .  S
C3517      C3518   1.411       .  A
C3517     Br3523   1.927       .  S
C3518      C3519   1.412       .  A
C3519      C3520   1.407       .  A
C3519     Br3528   1.933       .  S
C3520     Br3524   1.931       .  S
C3529      C3530   1.411       .  A
C3529      C3534   1.411       .  A
C3530      C3531   1.410       .  A
C3530     Br3542   1.929       .  S
C3531      C3532   1.409       .  A
C3531     Br3546   1.928       .  S
C3532      C3535   1.492       .  S
C3532      C3533   1.411       .  A
C3533      C3534   1.411       .  A
C3533     Br3541   1.930       .  S
C3534     Br3545   1.928       .  S
C3535      C3536   1.410       .  A
C3535      C3540   1.411       .  A
C3536      C3537   1.412       .  A
C3536     Br3547   1.926       .  S
C3537      C3538   1.411       .  A
C3537     Br3543   1.929       .  S
C3538      C3539   1.413       .  A
C3539      C3540   1.408       .  A
C3539     Br3548   1.933       .  S
C3540     Br3544   1.933       .  S
C3549      C3550   1.425       .  A
C3549      C3554   1.422       .  A
C3550      C3551   1.414       .  A
C3550     Br3562   1.935       .  S
C3551      C3552   1.408       .  A
C3551     Br3566   1.933       .  S
C3552      C3555   1.498       .  S
C3552      C3553   1.408       .  A
C3553      C3554   1.414       .  A
C3553     Br3561   1.931       .  S
C3554     Br3565   1.932       .  S
C3555      C3556   1.410       .  A
C3555      C3560   1.412       .  A
C3556      C3557   1.410       .  A
C3556     Br3567   1.930       .  S
C3557      C3558   1.413       .  A
C3557     Br3563   1.931       .  S
C3558      C3559   1.415       .  A
C3559      C3560   1.416       .  A
C3559     Br3568   1.929       .  S
C3560     Br3564   1.929       .  S
C3569      C3570   1.410       .  A
C3569      C3574   1.409       .  A
C3570      C3571   1.411       .  A
C3570     Br3582   1.928       .  S
C3571      C3572   1.410       .  A
C3571     Br3586   1.927       .  S
C3572      C3575   1.487       .  S
C3572      C3573   1.410       .  A
C3573      C3574   1.407       .  A
C3573     Br3581   1.932       .  S
C3574     Br3585   1.928       .  S
C3575      C3576   1.406       .  A
C3575      C3580   1.411       .  A
C3576      C3577   1.407       .  A
C3576     Br3587   1.929       .  S
C3577      C3578   1.415       .  A
C3577     Br3583   1.932       .  S
C3578      C3579   1.416       .  A
C3579      C3580   1.411       .  A
C3579     Br3588   1.933       .  S
C3580     Br3584   1.931       .  S
C3589      C3590   1.415       .  A
C3589      C3594   1.416       .  A
C3590      C3591   1.413       .  A
C3590     Br3602   1.929       .  S
C3591      C3592   1.409       .  A
C3591     Br3606   1.929       .  S
C3592      C3595   1.491       .  S
C3592      C3593   1.407       .  A
C3593      C3594   1.409       .  A
C3593     Br3601   1.933       .  S
C3594     Br3605   1.928       .  S
C3595      C3596   1.410       .  A
C3595      C3600   1.407       .  A
C3596      C3597   1.414       .  A
C3596     Br3607   1.930       .  S
C3597      C3598   1.415       .  A
C3597     Br3603   1.930       .  S
C3598      C3599   1.416       .  A
C3599      C3600   1.407       .  A
C3599     Br3608   1.933       .  S
C3600     Br3604   1.932       .  S
C3609      C3610   1.411       .  A
C3609      C3614   1.413       .  A
C3610      C3611   1.408       .  A
C3610     Br3622   1.924       .  S
C3611      C3612   1.408       .  A
C3611     Br3626   1.931       .  S
C3612      C3615   1.484   1_565  S
C3612      C3613   1.407       .  A
C3613      C3614   1.408       .  A
C3613     Br3621   1.929       .  S
C3614     Br3625   1.931       .  S
C3615      C3616   1.411       .  A
C3615      C3620   1.408       .  A
C3616      C3617   1.408       .  A
C3616     Br3627   1.930       .  S
C3617      C3618   1.408       .  A
C3617     Br3623   1.929       .  S
C3618      C3619   1.411       .  A
C3619      C3620   1.407       .  A
C3619     Br3628   1.931       .  S
C3620     Br3624   1.929       .  S
C3629      C3630   1.416       .  A
C3629      C3634   1.416       .  A
C3630      C3631   1.411       .  A
C3630     Br3642   1.931       .  S
C3631      C3632   1.410       .  A
C3631     Br3646   1.932       .  S
C3632      C3635   1.492       .  S
C3632      C3633   1.408       .  A
C3633      C3634   1.411       .  A
C3633     Br3641   1.928       .  S
C3634     Br3645   1.931       .  S
C3635      C3636   1.412       .  A
C3635      C3640   1.411       .  A
C3636      C3637   1.409       .  A
C3636     Br3647   1.929       .  S
C3637      C3638   1.407       .  A
C3637     Br3643   1.929       .  S
C3638      C3639   1.408       .  A
C3639      C3640   1.411       .  A
C3639     Br3648   1.929       .  S
C3640     Br3644   1.927       .  S
C3649      C3650   1.426       .  A
C3649      C3654   1.421       .  A
C3650      C3651   1.414       .  A
C3650     Br3662   1.934       .  S
C3651      C3652   1.406       .  A
C3651     Br3666   1.932       .  S
C3652      C3655   1.494       .  S
C3652      C3653   1.408       .  A
C3653      C3654   1.411       .  A
C3653     Br3661   1.933       .  S
C3654     Br3665   1.933       .  S
C3655      C3656   1.413       .  A
C3655      C3660   1.411       .  A
C3656      C3657   1.414       .  A
C3656     Br3667   1.927       .  S
C3657      C3658   1.411       .  A
C3657     Br3663   1.928       .  S
C3658      C3659   1.410       .  A
C3659      C3660   1.407       .  A
C3659     Br3668   1.932       .  S
C3660     Br3664   1.931       .  S
C3669      C3670   1.414       .  A
C3669      C3674   1.415       .  A
C3670      C3671   1.412       .  A
C3670     Br3682   1.930       .  S
C3671      C3672   1.409       .  A
C3671     Br3686   1.928       .  S
C3672      C3675   1.491       .  S
C3672      C3673   1.409       .  A
C3673      C3674   1.409       .  A
C3673     Br3681   1.931       .  S
C3674     Br3685   1.934       .  S
C3675      C3676   1.408       .  A
C3675      C3680   1.410       .  A
C3676      C3677   1.409       .  A
C3676     Br3687   1.931       .  S
C3677      C3678   1.414       .  A
C3677     Br3683   1.929       .  S
C3678      C3679   1.414       .  A
C3679      C3680   1.414       .  A
C3679     Br3688   1.928       .  S
C3680     Br3684   1.929       .  S
C3689      C3690   1.408       .  A
C3689      C3694   1.409       .  A
C3690      C3691   1.407       .  A
C3690     Br3702   1.930       .  S
C3691      C3692   1.410       .  A
C3691     Br3706   1.929       .  S
C3692      C3695   1.487       .  S
C3692      C3693   1.410       .  A
C3693      C3694   1.410       .  A
C3693     Br3701   1.927       .  S
C3694     Br3705   1.928       .  S
C3695      C3696   1.409       .  A
C3695      C3700   1.406       .  A
C3696      C3697   1.410       .  A
C3696     Br3707   1.933       .  S
C3697      C3698   1.416       .  A
C3697     Br3703   1.933       .  S
C3698      C3699   1.416       .  A
C3699      C3700   1.409       .  A
C3699     Br3708   1.931       .  S
C3700     Br3704   1.929       .  S
C3709      C3710   1.414       .  A
C3709      C3714   1.414       .  A
C3710      C3711   1.408       .  A
C3710     Br3722   1.933       .  S
C3711      C3712   1.409       .  A
C3711     Br3726   1.931       .  S
C3712      C3715   1.495       .  S
C3712      C3713   1.411       .  A
C3713      C3714   1.415       .  A
C3713     Br3721   1.928       .  S
C3714     Br3725   1.928       .  S
C3715      C3716   1.408       .  A
C3715      C3720   1.408       .  A
C3716      C3717   1.411       .  A
C3716     Br3727   1.931       .  S
C3717      C3718   1.418       .  A
C3717     Br3723   1.930       .  S
C3718      C3719   1.417       .  A
C3719      C3720   1.413       .  A
C3719     Br3728   1.929       .  S
C3720     Br3724   1.929       .  S
C3729      C3730   1.423       .  A
C3729      C3734   1.418       .  A
C3730      C3731   1.409       .  A
C3730     Br3742   1.935       .  S
C3731      C3732   1.406       .  A
C3731     Br3746   1.934       .  S
C3732      C3735   1.491       .  S
C3732      C3733   1.409       .  A
C3733      C3734   1.413       .  A
C3733     Br3741   1.932       .  S
C3734     Br3745   1.930       .  S
C3735      C3736   1.408       .  A
C3735      C3740   1.406       .  A
C3736      C3737   1.412       .  A
C3736     Br3747   1.932       .  S
C3737      C3738   1.421       .  A
C3737     Br3743   1.933       .  S
C3738      C3739   1.422       .  A
C3739      C3740   1.409       .  A
C3739     Br3748   1.935       .  S
C3740     Br3744   1.933       .  S
C3749      C3750   1.410       .  A
C3749      C3754   1.414       .  A
C3750      C3751   1.410       .  A
C3750     Br3762   1.930       .  S
C3751      C3752   1.411       .  A
C3751     Br3766   1.928       .  S
C3752      C3755   1.489       .  S
C3752      C3753   1.408       .  A
C3753      C3754   1.408       .  A
C3753     Br3761   1.929       .  S
C3754     Br3765   1.933       .  S
C3755      C3756   1.411       .  A
C3755      C3760   1.411       .  A
C3756      C3757   1.406       .  A
C3756     Br3767   1.931       .  S
C3757      C3758   1.409       .  A
C3757     Br3763   1.932       .  S
C3758      C3759   1.410       .  A
C3759      C3760   1.412       .  A
C3759     Br3768   1.929       .  S
C3760     Br3764   1.927       .  S
C3769      C3770   1.411       .  A
C3769      C3774   1.411       .  A
C3770      C3771   1.413       .  A
C3770     Br3782   1.929       .  S
C3771      C3772   1.411       .  A
C3771     Br3786   1.927       .  S
C3772      C3775   1.489       .  S
C3772      C3773   1.408       .  A
C3773      C3774   1.405       .  A
C3773     Br3781   1.932       .  S
C3774     Br3785   1.930       .  S
C3775      C3776   1.405       .  A
C3775      C3780   1.408       .  A
C3776      C3777   1.409       .  A
C3776     Br3787   1.931       .  S
C3777      C3778   1.422       .  A
C3777     Br3783   1.933       .  S
C3778      C3779   1.420       .  A
C3779      C3780   1.412       .  A
C3779     Br3788   1.932       .  S
C3780     Br3784   1.933       .  S
C3789      C3790   1.407       .  A
C3789      C3794   1.409       .  A
C3790      C3791   1.407       .  A
C3790     Br3802   1.929       .  S
C3791      C3792   1.410       .  A
C3791     Br3806   1.929       .  S
C3792      C3795   1.486       .  S
C3792      C3793   1.409       .  A
C3793      C3794   1.408       .  A
C3793     Br3801   1.929       .  S
C3794     Br3805   1.929       .  S
C3795      C3796   1.409       .  A
C3795      C3800   1.407       .  A
C3796      C3797   1.408       .  A
C3796     Br3807   1.932       .  S
C3797      C3798   1.414       .  A
C3797     Br3803   1.933       .  S
C3798      C3799   1.414       .  A
C3799      C3800   1.409       .  A
C3799     Br3808   1.930       .  S
C3800     Br3804   1.929       .  S
C3809      C3810   1.418       .  A
C3809      C3814   1.420       .  A
C3810      C3811   1.409       .  A
C3810     Br3822   1.932       .  S
C3811      C3812   1.407       .  A
C3811     Br3826   1.932       .  S
C3812      C3815   1.482       .  S
C3812      C3813   1.405       .  A
C3813      C3814   1.404       .  A
C3813     Br3821   1.932       .  S
C3814     Br3825   1.937       .  S
C3815      C3816   1.404       .  A
C3815      C3820   1.406       .  A
C3816      C3817   1.408       .  A
C3816     Br3827   1.934       .  S
C3817      C3818   1.423       .  A
C3817     Br3823   1.933       .  S
C3818      C3819   1.418       .  A
C3819      C3820   1.408       .  A
C3819     Br3828   1.931       .  S
C3820     Br3824   1.932       .  S
C3829      C3830   1.410       .  A
C3829      C3834   1.410       .  A
C3830      C3831   1.410       .  A
C3830     Br3842   1.930       .  S
C3831      C3832   1.411       .  A
C3831     Br3846   1.929       .  S
C3832      C3835   1.491       .  S
C3832      C3833   1.410       .  A
C3833      C3834   1.410       .  A
C3833     Br3841   1.929       .  S
C3834     Br3845   1.930       .  S
C3835      C3836   1.408       .  A
C3835      C3840   1.410       .  A
C3836      C3837   1.406       .  A
C3836     Br3847   1.931       .  S
C3837      C3838   1.413       .  A
C3837     Br3843   1.933       .  S
C3838      C3839   1.415       .  A
C3839      C3840   1.414       .  A
C3839     Br3848   1.929       .  S
C3840     Br3844   1.929       .  S
C3849      C3850   1.417       .  A
C3849      C3854   1.412       .  A
C3850      C3851   1.410       .  A
C3850     Br3862   1.933       .  S
C3851      C3852   1.408       .  A
C3851     Br3866   1.931       .  S
C3852      C3855   1.491       .  S
C3852      C3853   1.409       .  A
C3853      C3854   1.410       .  A
C3853     Br3861   1.928       .  S
C3854     Br3865   1.929       .  S
C3855      C3856   1.409       .  A
C3855      C3860   1.408       .  A
C3856      C3857   1.410       .  A
C3856     Br3867   1.932       .  S
C3857      C3858   1.417       .  A
C3857     Br3863   1.933       .  S
C3858      C3859   1.417       .  A
C3859      C3860   1.412       .  A
C3859     Br3868   1.930   1_455  S
C3860     Br3864   1.929       .  S
C3869      C3870   1.412       .  A
C3869      C3874   1.411       .  A
C3870      C3871   1.407       .  A
C3870     Br3882   1.932       .  S
C3871      C3872   1.409       .  A
C3871     Br3886   1.932       .  S
C3872      C3875   1.488       .  S
C3872      C3873   1.410       .  A
C3873      C3874   1.412       .  A
C3873     Br3881   1.928       .  S
C3874     Br3885   1.928       .  S
C3875      C3876   1.412       .  A
C3875      C3880   1.408       .  A
C3876      C3877   1.410       .  A
C3876     Br3887   1.928       .  S
C3877      C3878   1.408       .  A
C3877     Br3883   1.929       .  S
C3878      C3879   1.411       .  A
C3879      C3880   1.407       .  A
C3879     Br3888   1.931       .  S
C3880     Br3884   1.929       .  S
C3889      C3890   1.416       .  A
C3889      C3894   1.415       .  A
C3890      C3891   1.409       .  A
C3890     Br3902   1.932       .  S
C3891      C3892   1.408       .  A
C3891     Br3906   1.931       .  S
C3892      C3895   1.490       .  S
C3892      C3893   1.409       .  A
C3893      C3894   1.409       .  A
C3893     Br3901   1.932       .  S
C3894     Br3905   1.932       .  S
C3895      C3896   1.407       .  A
C3895      C3900   1.411       .  A
C3896      C3897   1.407   1_556  A
C3896     Br3907   1.933   1_455  S
C3897      C3898   1.417       .  A
C3897     Br3903   1.933   1_455  S
C3898      C3899   1.413       .  A
C3899      C3900   1.413   1_554  A
C3899     Br3908   1.929       .  S
C3900     Br3904   1.930       .  S
C3909      C3910   1.410       .  A
C3909      C3914   1.409       .  A
C3910      C3911   1.406       .  A
C3910     Br3922   1.931       .  S
C3911      C3912   1.408       .  A
C3911     Br3926   1.929       .  S
C3912      C3915   1.483       .  S
C3912      C3913   1.410       .  A
C3913      C3914   1.408       .  A
C3913     Br3921   1.930       .  S
C3914     Br3925   1.928       .  S
C3915      C3916   1.408       .  A
C3915      C3920   1.409       .  A
C3916      C3917   1.408       .  A
C3916     Br3927   1.927       .  S
C3917      C3918   1.410       .  A
C3917     Br3923   1.928       .  S
C3918      C3919   1.411       .  A
C3919      C3920   1.405       .  A
C3919     Br3928   1.933       .  S
C3920     Br3924   1.932       .  S
C3929      C3930   1.409       .  A
C3929      C3934   1.409       .  A
C3930      C3931   1.410       .  A
C3930     Br3942   1.917       .  S
C3931      C3932   1.409       .  A
C3931     Br3946   1.929       .  S
C3932      C3935   1.487       .  S
C3932      C3933   1.409       .  A
C3933      C3934   1.406       .  A
C3933     Br3941   1.930       .  S
C3934     Br3945   1.928       .  S
C3935      C3936   1.404       .  A
C3935      C3940   1.408       .  A
C3936      C3937   1.408       .  A
C3936     Br3947   1.933       .  S
C3937      C3938   1.423       .  A
C3937     Br3943   1.935       .  S
C3938      C3939   1.418       .  A
C3939      C3940   1.413       .  A
C3939     Br3948   1.929       .  S
C3940     Br3944   1.930       .  S
C3949      C3950   1.410       .  A
C3949      C3954   1.411       .  A
C3950      C3951   1.408       .  A
C3950     Br3962   1.929       .  S
C3951      C3952   1.409       .  A
C3951     Br3966   1.928       .  S
C3952      C3955   1.493       .  S
C3952      C3953   1.412       .  A
C3953      C3954   1.413       .  A
C3953     Br3961   1.928       .  S
C3954     Br3965   1.930       .  S
C3955      C3956   1.408       .  A
C3955      C3960   1.410       .  A
C3956      C3957   1.412       .  A
C3956     Br3967   1.928       .  S
C3957      C3958   1.415       .  A
C3957     Br3963   1.930       .  S
C3958      C3959   1.415       .  A
C3959      C3960   1.410       .  A
C3959     Br3968   1.933       .  S
C3960     Br3964   1.931       .  S
C3969      C3970   1.412       .  A
C3969      C3974   1.414       .  A
C3970      C3971   1.411       .  A
C3970     Br3982   1.929       .  S
C3971      C3972   1.411       .  A
C3971     Br3986   1.930       .  S
C3972      C3975   1.496   1_455  S
C3972      C3973   1.411       .  A
C3973      C3974   1.411       .  A
C3973     Br3981   1.929   1_455  S
C3974     Br3985   1.933       .  S
C3975      C3976   1.412       .  A
C3975      C3980   1.409       .  A
C3976      C3977   1.415       .  A
C3976     Br3987   1.930   1_655  S
C3977      C3978   1.415       .  A
C3977     Br3983   1.929       .  S
C3978      C3979   1.415       .  A
C3979      C3980   1.409       .  A
C3979     Br3988   1.933       .  S
C3980     Br3984   1.931       .  S
C3989      C3990   1.422       .  A
C3989      C3994   1.418       .  A
C3990      C3991   1.410       .  A
C3990     Br4002   1.934       .  S
C3991      C3992   1.406       .  A
C3991     Br4006   1.933       .  S
C3992      C3995   1.487       .  S
C3992      C3993   1.406       .  A
C3993      C3994   1.409       .  A
C3993     Br4001   1.932       .  S
C3994     Br4005   1.932       .  S
C3995      C3996   1.405       .  A
C3995      C4000   1.404       .  A
C3996      C3997   1.410       .  A
C3996     Br4007   1.934       .  S
C3997      C3998   1.424       .  A
C3997     Br4003   1.934       .  S
C3998      C3999   1.427       .  A
C3999      C4000   1.411       .  A
C3999     Br4008   1.935       .  S
C4000     Br4004   1.934       .  S
C4009      C4010   1.413       .  A
C4009      C4014   1.416       .  A
C4010      C4011   1.412       .  A
C4010     Br4022   1.929       .  S
C4011      C4012   1.410       .  A
C4011     Br4026   1.928       .  S
C4012      C4015   1.488       .  S
C4012      C4013   1.407       .  A
C4013      C4014   1.407       .  A
C4013     Br4021   1.932       .  S
C4014     Br4025   1.934       .  S
C4015      C4016   1.410       .  A
C4015      C4020   1.410       .  A
C4016      C4017   1.407       .  A
C4016     Br4027   1.932       .  S
C4017      C4018   1.411       .  A
C4017     Br4023   1.930       .  S
C4018      C4019   1.409       .  A
C4019      C4020   1.411       .  A
C4019     Br4028   1.928       .  S
C4020     Br4024   1.927       .  S
C4029      C4030   1.412       .  A
C4029      C4034   1.412       .  A
C4030      C4031   1.409       .  A
C4030     Br4042   1.930       .  S
C4031      C4032   1.411       .  A
C4031     Br4046   1.932       .  S
C4032      C4035   1.499       .  S
C4032      C4033   1.414       .  A
C4033      C4034   1.417       .  A
C4033     Br4041   1.928       .  S
C4034     Br4045   1.928       .  S
C4035      C4036   1.410       .  A
C4035      C4040   1.411       .  A
C4036      C4037   1.411       .  A
C4036     Br4047   1.932       .  S
C4037      C4038   1.417       .  A
C4037     Br4043   1.933       .  S
C4038      C4039   1.418       .  A
C4039      C4040   1.415       .  A
C4039     Br4048   1.932       .  S
C4040     Br4044   1.929       .  S
C4049      C4050   1.419       .  A
C4049      C4054   1.420       .  A
C4050      C4051   1.417       .  A
C4050     Br4062   1.928   1_455  S
C4051      C4052   1.410       .  A
C4051     Br4066   1.929       .  S
C4052      C4055   1.499       .  S
C4052      C4053   1.408       .  A
C4053      C4054   1.412       .  A
C4053     Br4061   1.931       .  S
C4054     Br4065   1.934       .  S
C4055      C4056   1.412       .  A
C4055      C4060   1.409       .  A
C4056      C4057   1.416       .  A
C4056     Br4067   1.928       .  S
C4057      C4058   1.413       .  A
C4057     Br4063   1.927       .  S
C4058      C4059   1.414       .  A
C4059      C4060   1.412       .  A
C4059     Br4068   1.931       .  S
C4060     Br4064   1.929       .  S
C4069      C4070   1.411       .  A
C4069      C4074   1.408       .  A
C4070      C4071   1.409       .  A
C4070     Br4082   1.930       .  S
C4071      C4072   1.410       .  A
C4071     Br4086   1.928       .  S
C4072      C4075   1.489       .  S
C4072      C4073   1.411       .  A
C4073      C4074   1.408       .  A
C4073     Br4081   1.929       .  S
C4074     Br4085   1.930       .  S
C4075      C4076   1.407       .  A
C4075      C4080   1.409       .  A
C4076      C4077   1.411       .  A
C4076     Br4087   1.930       .  S
C4077      C4078   1.417       .  A
C4077     Br4083   1.930       .  S
C4078      C4079   1.416       .  A
C4079      C4080   1.409       .  A
C4079     Br4088   1.933       .  S
C4080     Br4084   1.931       .  S
C4089      C4090   1.414       .  A
C4089      C4094   1.415       .  A
C4090      C4091   1.410       .  A
C4090     Br4102   1.920       .  S
C4091      C4092   1.406       .  A
C4091     Br4106   1.931       .  S
C4092      C4095   1.489       .  S
C4092      C4093   1.409       .  A
C4093      C4094   1.410       .  A
C4093     Br4101   1.931       .  S
C4094     Br4105   1.931       .  S
C4095      C4096   1.409       .  A
C4095      C4100   1.410       .  A
C4096      C4097   1.409       .  A
C4096     Br4107   1.930       .  S
C4097      C4098   1.413       .  A
C4097     Br4103   1.932       .  S
C4098      C4099   1.410       .  A
C4099      C4100   1.410       .  A
C4099     Br4108   1.928       .  S
C4100     Br4104   1.929       .  S
C4109      C4110   1.416       .  A
C4109      C4114   1.416       .  A
C4110      C4111   1.407       .  A
C4110     Br4122   1.922       .  S
C4111      C4112   1.406       .  A
C4111     Br4126   1.933       .  S
C4112      C4115   1.490   1_655  S
C4112      C4113   1.410       .  A
C4113      C4114   1.413       .  A
C4113     Br4121   1.929   1_655  S
C4114     Br4125   1.930       .  S
C4115      C4116   1.411       .  A
C4115      C4120   1.408       .  A
C4116      C4117   1.412       .  A
C4116     Br4127   1.928       .  S
C4117      C4118   1.412       .  A
C4117     Br4123   1.930       .  S
C4118      C4119   1.410       .  A
C4119      C4120   1.407       .  A
C4119     Br4128   1.920       .  S
C4120     Br4124   1.931   1_455  S
C4129      C4130   1.409       .  A
C4129      C4134   1.409       .  A
C4130      C4131   1.412       .  A
C4130     Br4142   1.928       .  S
C4131      C4132   1.412       .  A
C4131     Br4146   1.929   1_455  S
C4132      C4135   1.491       .  S
C4132      C4133   1.409       .  A
C4133      C4134   1.408       .  A
C4133     Br4141   1.929       .  S
C4134     Br4145   1.928       .  S
C4135      C4136   1.410       .  A
C4135      C4140   1.409       .  A
C4136      C4137   1.411       .  A
C4136     Br4147   1.928       .  S
C4137      C4138   1.413       .  A
C4137     Br4143   1.931       .  S
C4138      C4139   1.414       .  A
C4139      C4140   1.410       .  A
C4139     Br4148   1.931   1_455  S
C4140     Br4144   1.931       .  S
C4149      C4150   1.416       .  A
C4149      C4154   1.417       .  A
C4150      C4151   1.410       .  A
C4150     Br4162   1.931       .  S
C4151      C4152   1.407       .  A
C4151     Br4166   1.928       .  S
C4152      C4155   1.489       .  S
C4152      C4153   1.409       .  A
C4153      C4154   1.409       .  A
C4153     Br4161   1.932       .  S
C4154     Br4165   1.933       .  S
C4155      C4156   1.411       .  A
C4155      C4160   1.411       .  A
C4156      C4157   1.410       .  A
C4156     Br4167   1.926       .  S
C4157      C4158   1.407       .  A
C4157     Br4163   1.928       .  S
C4158      C4159   1.407       .  A
C4159      C4160   1.407       .  A
C4159     Br4168   1.929       .  S
C4160     Br4164   1.930       .  S
C4169      C4170   1.415       .  A
C4169      C4174   1.417       .  A
C4170      C4171   1.411       .  A
C4170     Br4182   1.931       .  S
C4171      C4172   1.410       .  A
C4171     Br4186   1.931       .  S
C4172      C4175   1.496       .  S
C4172      C4173   1.409       .  A
C4173      C4174   1.413       .  A
C4173     Br4181   1.929       .  S
C4174     Br4185   1.931       .  S
C4175      C4176   1.412       .  A
C4175      C4180   1.409       .  A
C4176      C4177   1.413       .  A
C4176     Br4187   1.929       .  S
C4177      C4178   1.411       .  A
C4177     Br4183   1.930       .  S
C4178      C4179   1.412       .  A
C4179      C4180   1.411       .  A
C4179     Br4188   1.926       .  S
C4180     Br4184   1.930       .  S
C4189      C4190   1.410       .  A
C4189      C4194   1.410       .  A
C4190      C4191   1.406       .  A
C4190     Br4202   1.926       .  S
C4191      C4192   1.408       .  A
C4191     Br4206   1.930       .  S
C4192      C4195   1.485       .  S
C4192      C4193   1.411       .  A
C4193      C4194   1.410       .  A
C4193     Br4201   1.929       .  S
C4194     Br4205   1.930       .  S
C4195      C4196   1.408       .  A
C4195      C4200   1.407       .  A
C4196      C4197   1.412       .  A
C4196     Br4207   1.928       .  S
C4197      C4198   1.414       .  A
C4197     Br4203   1.929       .  S
C4198      C4199   1.415       .  A
C4199      C4200   1.405       .  A
C4199     Br4208   1.934       .  S
C4200     Br4204   1.934       .  S
C4209      C4210   1.410       .  A
C4209      C4214   1.409       .  A
C4210      C4211   1.411       .  A
C4210     Br4222   1.929       .  S
C4211      C4212   1.410       .  A
C4211     Br4226   1.928       .  S
C4212      C4215   1.490       .  S
C4212      C4213   1.411       .  A
C4213      C4214   1.408       .  A
C4213     Br4221   1.931       .  S
C4214     Br4225   1.931       .  S
C4215      C4216   1.408       .  A
C4215      C4220   1.409       .  A
C4216      C4217   1.411       .  A
C4216     Br4227   1.928       .  S
C4217      C4218   1.414       .  A
C4217     Br4223   1.932       .  S
C4218      C4219   1.415       .  A
C4219      C4220   1.409       .  A
C4219     Br4228   1.932       .  S
C4220     Br4224   1.931       .  S
C4229      C4230   1.427       .  A
C4229      C4234   1.421       .  A
C4230      C4231   1.410       .  A
C4230     Br4242   1.938       .  S
C4231      C4232   1.405       .  A
C4231     Br4246   1.933       .  S
C4232      C4235   1.488       .  S
C4232      C4233   1.405       .  A
C4233      C4234   1.410       .  A
C4233     Br4241   1.932       .  S
C4234     Br4245   1.933       .  S
C4235      C4236   1.406       .  A
C4235      C4240   1.405       .  A
C4236      C4237   1.410       .  A
C4236     Br4247   1.932       .  S
C4237      C4238   1.420       .  A
C4237     Br4243   1.932       .  S
C4238      C4239   1.424       .  A
C4239      C4240   1.410       .  A
C4239     Br4248   1.933       .  S
C4240     Br4244   1.933       .  S
C4249      C4250   1.410       .  A
C4249      C4254   1.412       .  A
C4250      C4251   1.411       .  A
C4250     Br4262   1.929       .  S
C4251      C4252   1.411       .  A
C4251     Br4266   1.930       .  S
C4252      C4255   1.488       .  S
C4252      C4253   1.408       .  A
C4253      C4254   1.407       .  A
C4253     Br4261   1.930       .  S
C4254     Br4265   1.927       .  S
C4255      C4256   1.408       .  A
C4255      C4260   1.409       .  A
C4256      C4257   1.408       .  A
C4256     Br4267   1.931       .  S
C4257      C4258   1.414       .  A
C4257     Br4263   1.932       .  S
C4258      C4259   1.412       .  A
C4259      C4260   1.410       .  A
C4259     Br4268   1.928       .  S
C4260     Br4264   1.929       .  S
C4269      C4270   1.409       .  A
C4269      C4274   1.408       .  A
C4270      C4271   1.409       .  A
C4270     Br4282   1.930       .  S
C4271      C4272   1.411       .  A
C4271     Br4286   1.931       .  S
C4272      C4275   1.490       .  S
C4272      C4273   1.411       .  A
C4273      C4274   1.410       .  A
C4273     Br4281   1.928       .  S
C4274     Br4285   1.930       .  S
C4275      C4276   1.408       .  A
C4275      C4280   1.409       .  A
C4276      C4277   1.408       .  A
C4276     Br4287   1.931       .  S
C4277      C4278   1.416       .  A
C4277     Br4283   1.933       .  S
C4278      C4279   1.416       .  A
C4279      C4280   1.413       .  A
C4279     Br4288   1.929       .  S
C4280     Br4284   1.930       .  S
C4289      C4290   1.414       .  A
C4289      C4294   1.413       .  A
C4290      C4291   1.412       .  A
C4290     Br4302   1.929       .  S
C4291      C4292   1.410       .  A
C4291     Br4306   1.930       .  S
C4292      C4295   1.490       .  S
C4292      C4293   1.408       .  A
C4293      C4294   1.408       .  A
C4293     Br4301   1.930       .  S
C4294     Br4305   1.932       .  S
C4295      C4296   1.408       .  A
C4295      C4300   1.409       .  A
C4296      C4297   1.408       .  A
C4296     Br4307   1.931       .  S
C4297      C4298   1.415       .  A
C4297     Br4303   1.932       .  S
C4298      C4299   1.415       .  A
C4299      C4300   1.412       .  A
C4299     Br4308   1.930       .  S
C4300     Br4304   1.929       .  S
C4309      C4310   1.416       .  A
C4309      C4314   1.416       .  A
C4310      C4311   1.407       .  A
C4310     Br4322   1.931       .  S
C4311      C4312   1.404       .  A
C4311     Br4326   1.929       .  S
C4312      C4315   1.483       .  S
C4312      C4313   1.410       .  A
C4313      C4314   1.409       .  A
C4313     Br4321   1.933       .  S
C4314     Br4325   1.932       .  S
C4315      C4316   1.410       .  A
C4315      C4320   1.408       .  A
C4316      C4317   1.410       .  A
C4316     Br4327   1.927       .  S
C4317      C4318   1.408       .  A
C4317     Br4323   1.927       .  S
C4318      C4319   1.408       .  A
C4319      C4320   1.403       .  A
C4319     Br4328   1.930       .  S
C4320     Br4324   1.931       .  S
C4329      C4330   1.412       .  A
C4329      C4334   1.415       .  A
C4330      C4331   1.408   1_655  A
C4330     Br4342   1.927       .  S
C4331      C4332   1.408       .  A
C4331     Br4346   1.930       .  S
C4332      C4335   1.490       .  S
C4332      C4333   1.410       .  A
C4333      C4334   1.412   1_455  A
C4333     Br4341   1.930       .  S
C4334     Br4345   1.931       .  S
C4335      C4336   1.412       .  A
C4335      C4340   1.410       .  A
C4336      C4337   1.410       .  A
C4336     Br4347   1.929       .  S
C4337      C4338   1.407       .  A
C4337     Br4343   1.928       .  S
C4338      C4339   1.409       .  A
C4339      C4340   1.409       .  A
C4339     Br4348   1.931       .  S
C4340     Br4344   1.929       .  S
C4349      C4350   1.408       .  A
C4349      C4354   1.409       .  A
C4350      C4351   1.410       .  A
C4350     Br4362   1.928       .  S
C4351      C4352   1.411       .  A
C4351     Br4366   1.929       .  S
C4352      C4355   1.488       .  S
C4352      C4353   1.408       .  A
C4353      C4354   1.407       .  A
C4353     Br4361   1.928   1_655  S
C4354     Br4365   1.929       .  S
C4355      C4356   1.409       .  A
C4355      C4360   1.409       .  A
C4356      C4357   1.406       .  A
C4356     Br4367   1.932       .  S
C4357      C4358   1.412       .  A
C4357     Br4363   1.932       .  S
C4358      C4359   1.413       .  A
C4359      C4360   1.412       .  A
C4359     Br4368   1.929       .  S
C4360     Br4364   1.928       .  S
C4369      C4370   1.410       .  A
C4369      C4374   1.410       .  A
C4370      C4371   1.404       .  A
C4370     Br4382   1.931       .  S
C4371      C4372   1.408       .  A
C4371     Br4386   1.932       .  S
C4372      C4375   1.483       .  S
C4372      C4373   1.409       .  A
C4373      C4374   1.410       .  A
C4373     Br4381   1.928       .  S
C4374     Br4385   1.927       .  S
C4375      C4376   1.409       .  A
C4375      C4380   1.407       .  A
C4376      C4377   1.408       .  A
C4376     Br4387   1.930       .  S
C4377      C4378   1.411       .  A
C4377     Br4383   1.929       .  S
C4378      C4379   1.414       .  A
C4379      C4380   1.406       .  A
C4379     Br4388   1.931       .  S
C4380     Br4384   1.931       .  S
C4389      C4390   1.415       .  A
C4389      C4394   1.416       .  A
C4390      C4391   1.415       .  A
C4390     Br4402   1.929       .  S
C4391      C4392   1.411       .  A
C4391     Br4406   1.928       .  S
C4392      C4395   1.496       .  S
C4392      C4393   1.409       .  A
C4393      C4394   1.409       .  A
C4393     Br4401   1.933       .  S
C4394     Br4405   1.932       .  S
C4395      C4396   1.412       .  A
C4395      C4400   1.410       .  A
C4396      C4397   1.414       .  A
C4396     Br4407   1.929       .  S
C4397      C4398   1.412       .  A
C4397     Br4403   1.927       .  S
C4398      C4399   1.415       .  A
C4399      C4400   1.410       .  A
C4399     Br4408   1.933       .  S
C4400     Br4404   1.930       .  S
C4409      C4410   1.413       .  A
C4409      C4414   1.412       .  A
C4410      C4411   1.409       .  A
C4410     Br4422   1.932       .  S
C4411      C4412   1.411       .  A
C4411     Br4426   1.931       .  S
C4412      C4415   1.493       .  S
C4412      C4413   1.410       .  A
C4413      C4414   1.412       .  A
C4413     Br4421   1.928       .  S
C4414     Br4425   1.928       .  S
C4415      C4416   1.412       .  A
C4415      C4420   1.410       .  A
C4416      C4417   1.411       .  A
C4416     Br4427   1.928       .  S
C4417      C4418   1.409       .  A
C4417     Br4423   1.930       .  S
C4418      C4419   1.411       .  A
C4419      C4420   1.409       .  A
C4419     Br4428   1.931       .  S
C4420     Br4424   1.929       .  S
C4429      C4430   1.415       .  A
C4429      C4434   1.419       .  A
C4430      C4431   1.415       .  A
C4430     Br4442   1.929       .  S
C4431      C4432   1.411       .  A
C4431     Br4446   1.929       .  S
C4432      C4435   1.495       .  S
C4432      C4433   1.407       .  A
C4433      C4434   1.410       .  A
C4433     Br4441   1.931       .  S
C4434     Br4445   1.933       .  S
C4435      C4436   1.410       .  A
C4435      C4440   1.411       .  A
C4436      C4437   1.409       .  A
C4436     Br4447   1.930       .  S
C4437      C4438   1.412       .  A
C4437     Br4443   1.928       .  S
C4438      C4439   1.409       .  A
C4439      C4440   1.414       .  A
C4439     Br4448   1.926       .  S
C4440     Br4444   1.927       .  S
C4449      C4450   1.414       .  A
C4449      C4454   1.419       .  A
C4450      C4451   1.412       .  A
C4450     Br4462   1.928       .  S
C4451      C4452   1.409       .  A
C4451     Br4466   1.930       .  S
C4452      C4455   1.488       .  S
C4452      C4453   1.406       .  A
C4453      C4454   1.407       .  A
C4453     Br4461   1.933       .  S
C4454     Br4465   1.934       .  S
C4455      C4456   1.407       .  A
C4455      C4460   1.408       .  A
C4456      C4457   1.408       .  A
C4456     Br4467   1.931       .  S
C4457      C4458   1.417       .  A
C4457     Br4463   1.933       .  S
C4458      C4459   1.418       .  A
C4459      C4460   1.410       .  A
C4459     Br4468   1.933       .  S
C4460     Br4464   1.932       .  S
C4469      C4470   1.417       .  A
C4469      C4474   1.420       .  A
C4470      C4471   1.411       .  A
C4470     Br4482   1.931       .  S
C4471      C4472   1.407       .  A
C4471     Br4486   1.929       .  S
C4472      C4475   1.485       .  S
C4472      C4473   1.405       .  A
C4473      C4474   1.405       .  A
C4473     Br4481   1.932       .  S
C4474     Br4485   1.938       .  S
C4475      C4476   1.410       .  A
C4475      C4480   1.409       .  A
C4476      C4477   1.407       .  A
C4476     Br4487   1.930       .  S
C4477      C4478   1.409       .  A
C4477     Br4483   1.930       .  S
C4478      C4479   1.409       .  A
C4479      C4480   1.410       .  A
C4479     Br4488   1.926       .  S
C4480     Br4484   1.928       .  S
C4489      C4490   1.414       .  A
C4489      C4494   1.415       .  A
C4490      C4491   1.405       .  A
C4490     Br4502   1.933       .  S
C4491      C4492   1.407       .  A
C4491     Br4506   1.933       .  S
C4492      C4495   1.481       .  S
C4492      C4493   1.407       .  A
C4493      C4494   1.409       .  A
C4493     Br4501   1.930       .  S
C4494     Br4505   1.930       .  S
C4495      C4496   1.410       .  A
C4495      C4500   1.409       .  A
C4496      C4497   1.405       .  A
C4496     Br4507   1.929       .  S
C4497      C4498   1.406       .  A
C4497     Br4503   1.931       .  S
C4498      C4499   1.407       .  A
C4499      C4500   1.406       .  A
C4499     Br4508   1.929       .  S
C4500     Br4504   1.929       .  S
C4509      C4510   1.424       .  A
C4509      C4514   1.426       .  A
C4510      C4511   1.411       .  A
C4510     Br4522   1.933       .  S
C4511      C4512   1.404       .  A
C4511     Br4526   1.931       .  S
C4512      C4515   1.486       .  S
C4512      C4513   1.405       .  A
C4513      C4514   1.409       .  A
C4513     Br4521   1.936       .  S
C4514     Br4525   1.936       .  S
C4515      C4516   1.411       .  A
C4515      C4520   1.408       .  A
C4516      C4517   1.410       .  A
C4516     Br4527   1.928       .  S
C4517      C4518   1.408       .  A
C4517     Br4523   1.928       .  S
C4518      C4519   1.409       .  A
C4519      C4520   1.405       .  A
C4519     Br4528   1.930       .  S
C4520     Br4524   1.929       .  S
C4529      C4530   1.412       .  A
C4529      C4534   1.411       .  A
C4530      C4531   1.408       .  A
C4530     Br4542   1.932       .  S
C4531      C4532   1.410       .  A
C4531     Br4546   1.931       .  S
C4532      C4535   1.489       .  S
C4532      C4533   1.410       .  A
C4533      C4534   1.411       .  A
C4533     Br4541   1.928       .  S
C4534     Br4545   1.929       .  S
C4535      C4536   1.411       .  A
C4535      C4540   1.407       .  A
C4536      C4537   1.412       .  A
C4536     Br4547   1.928       .  S
C4537      C4538   1.412       .  A
C4537     Br4543   1.930       .  S
C4538      C4539   1.414       .  A
C4539      C4540   1.406       .  A
C4539     Br4548   1.932       .  S
C4540     Br4544   1.931       .  S
C4549      C4550   1.415       .  A
C4549      C4554   1.416       .  A
C4550      C4551   1.416       .  A
C4550     Br4562   1.929       .  S
C4551      C4552   1.412       .  A
C4551     Br4566   1.928       .  S
C4552      C4555   1.501       .  S
C4552      C4553   1.410       .  A
C4553      C4554   1.411       .  A
C4553     Br4561   1.931       .  S
C4554     Br4565   1.932       .  S
C4555      C4556   1.411       .  A
C4555      C4560   1.410       .  A
C4556      C4557   1.416       .  A
C4556     Br4567   1.929       .  S
C4557      C4558   1.417       .  A
C4557     Br4563   1.930       .  S
C4558      C4559   1.417       .  A
C4559      C4560   1.412       .  A
C4559     Br4568   1.930       .  S
C4560     Br4564   1.931       .  S
C4569      C4570   1.412       .  A
C4569      C4574   1.411       .  A
C4570      C4571   1.406       .  A
C4570     Br4582   1.931       .  S
C4571      C4572   1.408       .  A
C4571     Br4586   1.931       .  S
C4572      C4575   1.487       .  S
C4572      C4573   1.411       .  A
C4573      C4574   1.410       .  A
C4573     Br4581   1.930       .  S
C4574     Br4585   1.928       .  S
C4575      C4576   1.409       .  A
C4575      C4580   1.412       .  A
C4576      C4577   1.407       .  A
C4576     Br4587   1.930       .  S
C4577      C4578   1.410       .  A
C4577     Br4583   1.930       .  S
C4578      C4579   1.407       .  A
C4579      C4580   1.409       .  A
C4579     Br4588   1.930       .  S
C4580     Br4584   1.929       .  S
C4589      C4590   1.411       .  A
C4589      C4594   1.412       .  A
C4590      C4591   1.410       .  A
C4590     Br4602   1.929       .  S
C4591      C4592   1.410       .  A
C4591     Br4606   1.929       .  S
C4592      C4595   1.493       .  S
C4592      C4593   1.410       .  A
C4593      C4594   1.411       .  A
C4593     Br4601   1.928       .  S
C4594     Br4605   1.930       .  S
C4595      C4596   1.410       .  A
C4595      C4600   1.410       .  A
C4596      C4597   1.408       .  A
C4596     Br4607   1.932       .  S
C4597      C4598   1.413       .  A
C4597     Br4603   1.932       .  S
C4598      C4599   1.416       .  A
C4599      C4600   1.415       .  A
C4599     Br4608   1.930       .  S
C4600     Br4604   1.928       .  S
C4609      C4610   1.415       .  A
C4609      C4614   1.415       .  A
C4610      C4611   1.408       .  A
C4610     Br4622   1.932       .  S
C4611      C4612   1.407       .  A
C4611     Br4626   1.928       .  S
C4612      C4615   1.486       .  S
C4612      C4613   1.410       .  A
C4613      C4614   1.409       .  A
C4613     Br4621   1.933       .  S
C4614     Br4625   1.932       .  S
C4615      C4616   1.411       .  A
C4615      C4620   1.410       .  A
C4616      C4617   1.409       .  A
C4616     Br4627   1.927       .  S
C4617      C4618   1.408       .  A
C4617     Br4623   1.929       .  S
C4618      C4619   1.407       .  A
C4619      C4620   1.406       .  A
C4619     Br4628   1.930       .  S
C4620     Br4624   1.930       .  S
C4629      C4630   1.417       .  A
C4629      C4634   1.416       .  A
C4630      C4631   1.409       .  A
C4630     Br4642   1.931       .  S
C4631      C4632   1.406       .  A
C4631     Br4646   1.930       .  S
C4632      C4635   1.487       .  S
C4632      C4633   1.409       .  A
C4633      C4634   1.409       .  A
C4633     Br4641   1.931       .  S
C4634     Br4645   1.933       .  S
C4635      C4636   1.410       .  A
C4635      C4640   1.410       .  A
C4636      C4637   1.409       .  A
C4636     Br4647   1.928       .  S
C4637      C4638   1.408       .  A
C4637     Br4643   1.928       .  S
C4638      C4639   1.408       .  A
C4639      C4640   1.408       .  A
C4639     Br4648   1.929       .  S
C4640     Br4644   1.929       .  S
C4649      C4650   1.409       .  A
C4649      C4654   1.410       .  A
C4650      C4651   1.405       .  A
C4650     Br4662   1.931       .  S
C4651      C4652   1.410       .  A
C4651     Br4666   1.932       .  S
C4652      C4655   1.487       .  S
C4652      C4653   1.410       .  A
C4653      C4654   1.412       .  A
C4653     Br4661   1.927       .  S
C4654     Br4665   1.928       .  S
C4655      C4656   1.410       .  A
C4655      C4660   1.407       .  A
C4656      C4657   1.409       .  A
C4656     Br4667   1.931       .  S
C4657      C4658   1.415       .  A
C4657     Br4663   1.933       .  S
C4658      C4659   1.415       .  A
C4659      C4660   1.408       .  A
C4659     Br4668   1.931       .  S
C4660     Br4664   1.928       .  S
C4669      C4670   1.418       .  A
C4669      C4674   1.418       .  A
C4670      C4671   1.408       .  A
C4670     Br4682   1.933       .  S
C4671      C4672   1.408       .  A
C4671     Br4686   1.933       .  S
C4672      C4675   1.490       .  S
C4672      C4673   1.409       .  A
C4673      C4674   1.410       .  A
C4673     Br4681   1.932       .  S
C4674     Br4685   1.933       .  S
C4675      C4676   1.410       .  A
C4675      C4680   1.408       .  A
C4676      C4677   1.410       .  A
C4676     Br4687   1.931       .  S
C4677      C4678   1.415       .  A
C4677     Br4683   1.931       .  S
C4678      C4679   1.419       .  A
C4679      C4680   1.408       .  A
C4679     Br4688   1.935       .  S
C4680     Br4684   1.933       .  S
C4689      C4690   1.417       .  A
C4689      C4694   1.414       .  A
C4690      C4691   1.408       .  A
C4690     Br4702   1.932       .  S
C4691      C4692   1.406       .  A
C4691     Br4706   1.932       .  S
C4692      C4695   1.490       .  S
C4692      C4693   1.410       .  A
C4693      C4694   1.413       .  A
C4693     Br4701   1.930       .  S
C4694     Br4705   1.928       .  S
C4695      C4696   1.409       .  A
C4695      C4700   1.411       .  A
C4696      C4697   1.410       .  A
C4696     Br4707   1.927       .  S
C4697      C4698   1.409       .  A
C4697     Br4703   1.924       .  S
C4698      C4699   1.411       .  A
C4699      C4700   1.409       .  A
C4699     Br4708   1.932       .  S
C4700     Br4704   1.931       .  S
C4709      C4710   1.420       .  A
C4709      C4714   1.418       .  A
C4710      C4711   1.410       .  A
C4710     Br4722   1.932       .  S
C4711      C4712   1.405       .  A
C4711     Br4726   1.930       .  S
C4712      C4715   1.488       .  S
C4712      C4713   1.408       .  A
C4713      C4714   1.411       .  A
C4713     Br4721   1.933       .  S
C4714     Br4725   1.931       .  S
C4715      C4716   1.410       .  A
C4715      C4720   1.409       .  A
C4716      C4717   1.412       .  A
C4716     Br4727   1.927       .  S
C4717      C4718   1.411       .  A
C4717     Br4723   1.929       .  S
C4718      C4719   1.410       .  A
C4719      C4720   1.405       .  A
C4719     Br4728   1.932       .  S
C4720     Br4724   1.931       .  S
C4729      C4730   1.416       .  A
C4729      C4734   1.415       .  A
C4730      C4731   1.409       .  A
C4730     Br4742   1.932       .  S
C4731      C4732   1.408   1_554  A
C4731     Br4746   1.932       .  S
C4732      C4735   1.492       .  S
C4732      C4733   1.410       .  A
C4733      C4734   1.414   1_556  A
C4733     Br4741   1.929       .  S
C4734     Br4745   1.928   1_554  S
C4735      C4736   1.410       .  A
C4735      C4740   1.410       .  A
C4736      C4737   1.412       .  A
C4736     Br4747   1.928       .  S
C4737      C4738   1.413       .  A
C4737     Br4743   1.930       .  S
C4738      C4739   1.412       .  A
C4739      C4740   1.409       .  A
C4739     Br4748   1.931       .  S
C4740     Br4744   1.930       .  S
C4749      C4750   1.413       .  A
C4749      C4754   1.415       .  A
C4750      C4751   1.408       .  A
C4750     Br4762   1.931       .  S
C4751      C4752   1.408       .  A
C4751     Br4766   1.929       .  S
C4752      C4755   1.482       .  S
C4752      C4753   1.406       .  A
C4753      C4754   1.407       .  A
C4753     Br4761   1.933       .  S
C4754     Br4765   1.930       .  S
C4755      C4756   1.409       .  A
C4755      C4760   1.409       .  A
C4756      C4757   1.403       .  A
C4756     Br4767   1.932       .  S
C4757      C4758   1.411       .  A
C4757     Br4763   1.933       .  S
C4758      C4759   1.409       .  A
C4759      C4760   1.409       .  A
C4759     Br4768   1.929       .  S
C4760     Br4764   1.927       .  S
C4769      C4770   1.413       .  A
C4769      C4774   1.414       .  A
C4770      C4771   1.411       .  A
C4770     Br4782   1.928       .  S
C4771      C4772   1.408       .  A
C4771     Br4786   1.930       .  S
C4772      C4775   1.485       .  S
C4772      C4773   1.408       .  A
C4773      C4774   1.407       .  A
C4773     Br4781   1.931       .  S
C4774     Br4785   1.932       .  S
C4775      C4776   1.407       .  A
C4775      C4780   1.410       .  A
C4776      C4777   1.405       .  A
C4776     Br4787   1.931       .  S
C4777      C4778   1.412       .  A
C4777     Br4783   1.929       .  S
C4778      C4779   1.412       .  A
C4779      C4780   1.410       .  A
C4779     Br4788   1.931       .  S
C4780     Br4784   1.928       .  S
C4789      C4790   1.416       .  A
C4789      C4794   1.415       .  A
C4790      C4791   1.410       .  A
C4790     Br4802   1.933       .  S
C4791      C4792   1.412       .  A
C4791     Br4806   1.932   1_565  S
C4792      C4795   1.497   1_565  S
C4792      C4793   1.412       .  A
C4793      C4794   1.411       .  A
C4793     Br4801   1.931       .  S
C4794     Br4805   1.932       .  S
C4795      C4796   1.411       .  A
C4795      C4800   1.413       .  A
C4796      C4797   1.409       .  A
C4796     Br4807   1.933       .  S
C4797      C4798   1.417       .  A
C4797     Br4803   1.935       .  S
C4798      C4799   1.413       .  A
C4799      C4800   1.412       .  A
C4799     Br4808   1.931       .  S
C4800     Br4804   1.930   1_556  S
C4809      C4810   1.411       .  A
C4809      C4814   1.409       .  A
C4810      C4811   1.409       .  A
C4810     Br4822   1.930       .  S
C4811      C4812   1.409       .  A
C4811     Br4826   1.929       .  S
C4812      C4815   1.491       .  S
C4812      C4813   1.411       .  A
C4813      C4814   1.411       .  A
C4813     Br4821   1.928       .  S
C4814     Br4825   1.928       .  S
C4815      C4816   1.408       .  A
C4815      C4820   1.411       .  A
C4816      C4817   1.411       .  A
C4816     Br4827   1.928       .  S
C4817      C4818   1.413       .  A
C4817     Br4823   1.928       .  S
C4818      C4819   1.413       .  A
C4819      C4820   1.410       .  A
C4819     Br4828   1.932       .  S
C4820     Br4824   1.932       .  S
C4829      C4830   1.407       .  A
C4829      C4834   1.408       .  A
C4830      C4831   1.406       .  A
C4830     Br4842   1.929       .  S
C4831      C4832   1.408       .  A
C4831     Br4846   1.928       .  S
C4832      C4835   1.482       .  S
C4832      C4833   1.411       .  A
C4833      C4834   1.407       .  A
C4833     Br4841   1.931       .  S
C4834     Br4845   1.930       .  S
C4835      C4836   1.407       .  A
C4835      C4840   1.406       .  A
C4836      C4837   1.410       .  A
C4836     Br4847   1.929       .  S
C4837      C4838   1.415       .  A
C4837     Br4843   1.930       .  S
C4838      C4839   1.417       .  A
C4839      C4840   1.405       .  A
C4839     Br4848   1.935       .  S
C4840     Br4844   1.933       .  S
C4849      C4850   1.411       .  A
C4849      C4854   1.412       .  A
C4850      C4851   1.412       .  A
C4850     Br4862   1.927       .  S
C4851      C4852   1.410       .  A
C4851     Br4866   1.927       .  S
C4852      C4855   1.488       .  S
C4852      C4853   1.408       .  A
C4853      C4854   1.406       .  A
C4853     Br4861   1.933       .  S
C4854     Br4865   1.930       .  S
C4855      C4856   1.407       .  A
C4855      C4860   1.408       .  A
C4856      C4857   1.411       .  A
C4856     Br4867   1.929       .  S
C4857      C4858   1.419       .  A
C4857     Br4863   1.933       .  S
C4858      C4859   1.417       .  A
C4859      C4860   1.408       .  A
C4859     Br4868   1.933       .  S
C4860     Br4864   1.933       .  S
C4869      C4870   1.411       .  A
C4869      C4874   1.411       .  A
C4870      C4871   1.407       .  A
C4870     Br4882   1.932       .  S
C4871      C4872   1.410       .  A
C4871     Br4886   1.932       .  S
C4872      C4875   1.487       .  S
C4872      C4873   1.409       .  A
C4873      C4874   1.410       .  A
C4873     Br4881   1.927       .  S
C4874     Br4885   1.930       .  S
C4875      C4876   1.411       .  A
C4875      C4880   1.408       .  A
C4876      C4877   1.411       .  A
C4876     Br4887   1.928       .  S
C4877      C4878   1.410       .  A
C4877     Br4883   1.930       .  S
C4878      C4879   1.412       .  A
C4879      C4880   1.406       .  A
C4879     Br4888   1.932       .  S
C4880     Br4884   1.930       .  S
C4889      C4890   1.416       .  A
C4889      C4894   1.417       .  A
C4890      C4891   1.413       .  A
C4890     Br4902   1.931       .  S
C4891      C4892   1.409       .  A
C4891     Br4906   1.928       .  S
C4892      C4895   1.497       .  S
C4892      C4893   1.410       .  A
C4893      C4894   1.412       .  A
C4893     Br4901   1.930       .  S
C4894     Br4905   1.932       .  S
C4895      C4896   1.411       .  A
C4895      C4900   1.409       .  A
C4896      C4897   1.415       .  A
C4896     Br4907   1.928       .  S
C4897      C4898   1.414       .  A
C4897     Br4903   1.928   1_556  S
C4898      C4899   1.416       .  A
C4899      C4900   1.412       .  A
C4899     Br4908   1.931       .  S
C4900     Br4904   1.931       .  S
C4909      C4910   1.410       .  A
C4909      C4914   1.413       .  A
C4910      C4911   1.407       .  A
C4910     Br4922   1.930       .  S
C4911      C4912   1.410       .  A
C4911     Br4926   1.931       .  S
C4912      C4915   1.486       .  S
C4912      C4913   1.409       .  A
C4913      C4914   1.409       .  A
C4913     Br4921   1.930       .  S
C4914     Br4925   1.932       .  S
C4915      C4916   1.411       .  A
C4915      C4920   1.408       .  A
C4916      C4917   1.410       .  A
C4916     Br4927   1.929       .  S
C4917      C4918   1.410       .  A
C4917     Br4923   1.926       .  S
C4918      C4919   1.411       .  A
C4919      C4920   1.406       .  A
C4919     Br4928   1.928       .  S
C4920     Br4924   1.931       .  S
C4929      C4930   1.410       .  A
C4929      C4934   1.409       .  A
C4930      C4931   1.407       .  A
C4930     Br4942   1.930       .  S
C4931      C4932   1.408       .  A
C4931     Br4946   1.929       .  S
C4932      C4935   1.485       .  S
C4932      C4933   1.410       .  A
C4933      C4934   1.408       .  A
C4933     Br4941   1.930       .  S
C4934     Br4945   1.930       .  S
C4935      C4936   1.409       .  A
C4935      C4940   1.409       .  A
C4936      C4937   1.409       .  A
C4936     Br4947   1.928       .  S
C4937      C4938   1.411       .  A
C4937     Br4943   1.931       .  S
C4938      C4939   1.412       .  A
C4939      C4940   1.406       .  A
C4939     Br4948   1.932       .  S
C4940     Br4944   1.932       .  S
C4949      C4950   1.418       .  A
C4949      C4954   1.420       .  A
C4950      C4951   1.408       .  A
C4950     Br4962   1.934       .  S
C4951      C4952   1.408       .  A
C4951     Br4966   1.934       .  S
C4952      C4955   1.486       .  S
C4952      C4953   1.405       .  A
C4953      C4954   1.411       .  A
C4953     Br4961   1.930       .  S
C4954     Br4965   1.931       .  S
C4955      C4956   1.410       .  A
C4955      C4960   1.408       .  A
C4956      C4957   1.407       .  A
C4956     Br4967   1.930       .  S
C4957      C4958   1.408       .  A
C4957     Br4963   1.929       .  S
C4958      C4959   1.408       .  A
C4959      C4960   1.408       .  A
C4959     Br4968   1.922       .  S
C4960     Br4964   1.928       .  S
C4969      C4970   1.409       .  A
C4969      C4974   1.411       .  A
C4970      C4971   1.412       .  A
C4970     Br4982   1.930       .  S
C4971      C4972   1.414       .  A
C4971     Br4986   1.929       .  S
C4972      C4975   1.498   1_556  S
C4972      C4973   1.412       .  A
C4973      C4974   1.410       .  A
C4973     Br4981   1.930       .  S
C4974     Br4985   1.931       .  S
C4975      C4976   1.410       .  A
C4975      C4980   1.413   1_554  A
C4976      C4977   1.411       .  A
C4976     Br4987   1.932       .  S
C4977      C4978   1.416       .  A
C4977     Br4983   1.931       .  S
C4978      C4979   1.414       .  A
C4979      C4980   1.413   1_554  A
C4979     Br4988   1.932       .  S
C4980     Br4984   1.929       .  S
C4989      C4990   1.410       .  A
C4989      C4994   1.410       .  A
C4990      C4991   1.404       .  A
C4990     Br5002   1.932       .  S
C4991      C4992   1.409       .  A
C4991     Br5006   1.932       .  S
C4992      C4995   1.485       .  S
C4992      C4993   1.409       .  A
C4993      C4994   1.411       .  A
C4993     Br5001   1.927       .  S
C4994     Br5005   1.926       .  S
C4995      C4996   1.407       .  A
C4995      C5000   1.404       .  A
C4996      C4997   1.408       .  A
C4996     Br5007   1.932       .  S
C4997      C4998   1.418       .  A
C4997     Br5003   1.933       .  S
C4998      C4999   1.419       .  A
C4999      C5000   1.408       .  A
C4999     Br5008   1.932       .  S
C5000     Br5004   1.929       .  S
C5009      C5010   1.422       .  A
C5009      C5014   1.417       .  A
C5010      C5011   1.408       .  A
C5010     Br5022   1.936       .  S
C5011      C5012   1.407       .  A
C5011     Br5026   1.934       .  S
C5012      C5015   1.490       .  S
C5012      C5013   1.409       .  A
C5013      C5014   1.413       .  A
C5013     Br5021   1.930       .  S
C5014     Br5025   1.930       .  S
C5015      C5016   1.412       .  A
C5015      C5020   1.410       .  A
C5016      C5017   1.412       .  A
C5016     Br5027   1.927       .  S
C5017      C5018   1.408       .  A
C5017     Br5023   1.927   1_554  S
C5018      C5019   1.410       .  A
C5019      C5020   1.406       .  A
C5019     Br5028   1.929       .  S
C5020     Br5024   1.933       .  S
C5029      C5030   1.414       .  A
C5029      C5034   1.414       .  A
C5030      C5031   1.416       .  A
C5030     Br5042   1.929       .  S
C5031      C5032   1.412       .  A
C5031     Br5046   1.928       .  S
C5032      C5035   1.498       .  S
C5032      C5033   1.409       .  A
C5033      C5034   1.410       .  A
C5033     Br5041   1.930       .  S
C5034     Br5045   1.928       .  S
C5035      C5036   1.411       .  A
C5035      C5040   1.409       .  A
C5036      C5037   1.416       .  A
C5036     Br5047   1.928       .  S
C5037      C5038   1.415       .  A
C5037     Br5043   1.929   1_556  S
C5038      C5039   1.415       .  A
C5039      C5040   1.411       .  A
C5039     Br5048   1.931       .  S
C5040     Br5044   1.931       .  S
C5049      C5050   1.414       .  A
C5049      C5054   1.412       .  A
C5050      C5051   1.408       .  A
C5050     Br5062   1.932   1_556  S
C5051      C5052   1.407       .  A
C5051     Br5066   1.930       .  S
C5052      C5055   1.486       .  S
C5052      C5053   1.409       .  A
C5053      C5054   1.409       .  A
C5053     Br5061   1.930       .  S
C5054     Br5065   1.928       .  S
C5055      C5056   1.409       .  A
C5055      C5060   1.410       .  A
C5056      C5057   1.408       .  A
C5056     Br5067   1.929       .  S
C5057      C5058   1.410       .  A
C5057     Br5063   1.930       .  S
C5058      C5059   1.407       .  A
C5059      C5060   1.408       .  A
C5059     Br5068   1.928       .  S
C5060     Br5064   1.929   1_556  S
C5069      C5070   1.412       .  A
C5069      C5074   1.410       .  A
C5070      C5071   1.407       .  A
C5070     Br5082   1.931       .  S
C5071      C5072   1.407       .  A
C5071     Br5086   1.929       .  S
C5072      C5075   1.487       .  S
C5072      C5073   1.411       .  A
C5073      C5074   1.409       .  A
C5073     Br5081   1.930       .  S
C5074     Br5085   1.930       .  S
C5075      C5076   1.407       .  A
C5075      C5080   1.410       .  A
C5076      C5077   1.410       .  A
C5076     Br5087   1.929       .  S
C5077      C5078   1.415       .  A
C5077     Br5083   1.930       .  S
C5078      C5079   1.413       .  A
C5079      C5080   1.407       .  A
C5079     Br5088   1.932       .  S
C5080     Br5084   1.934       .  S
