geometry optimzed in LAMMPS
_audit_creation_date              2020-12-01 
_audit_creation_method            'lammps2cif' 
_symmetry_space_group_name_H-M    'P1' 
_symmetry_Int_Tables_number       1 
_symmetry_cell_setting            triclinic 
loop_ 
_symmetry_equiv_pos_as_xyz 
  x,y,z 
_cell_length_a                    37.71932936 
_cell_length_b                    39.34370000129001 
_cell_length_c                    38.21320368751938 
_cell_angle_alpha                 90.3513202964771 
_cell_angle_beta                  90.23927856339202 
_cell_angle_gamma                 89.9371890101931 
loop_ 
_atom_site_label 
_atom_site_type_symbol 
_atom_site_fract_x 
_atom_site_fract_y 
_atom_site_fract_z 
_atom_site_charge 
C1          C  0.79349659  0.85234155  0.01787253     0.02800
C2          C  0.81098291  0.88315501  0.01234877    -0.13400
C3          C  0.83407729  0.88703035  0.98408822     0.00300
C4          C  0.83426902  0.86155835  0.95747070    -0.11900
C5          C  0.81169677  0.83260634  0.96003607     0.02800
C6          C  0.79538529  0.82676939  0.99234484    -0.11300
H7          H  0.80789620  0.90376644  0.03092591     0.08400
H8          H  0.85089819  0.86490500  0.93496447     0.05900
H9          H  0.78157265  0.80300138  0.99657238     0.05700
C10         C  0.74887200  0.14155135  0.03811168     0.02800
C11         C  0.78337867  0.12712799  0.03612175    -0.13400
C12         C  0.79585815  0.11196117  0.00466092     0.00300
C13         C  0.77444700  0.11571830  0.97386508    -0.11900
C14         C  0.74070822  0.13218833  0.97545589     0.02800
C15         C  0.72768207  0.14196228  0.00821564    -0.11300
H16         H  0.80053489  0.12747464  0.05881199     0.08400
H17         H  0.78456334  0.10707657  0.94887529     0.05900
H18         H  0.70182507  0.15403296  0.00974718     0.05700
C19         C  0.12169114  0.90108395  0.01745283     0.02800
C20         C  0.13852613  0.89395376  0.98596880    -0.13400
C21         C  0.12205844  0.90088151  0.95387977     0.00300
C22         C  0.08858590  0.91742578  0.95377193    -0.11900
C23         C  0.07251854  0.92671753  0.98595103     0.02800
C24         C  0.08974172  0.91903272  0.01741385    -0.11300
H25         H  0.16340136  0.88007919  0.98643849     0.08400
H26         H  0.07505659  0.92247546  0.92930003     0.05900
H27         H  0.07743717  0.92574029  0.04211373     0.05700
C28         C  0.78568898  0.03541774  0.83910856     0.02800
C29         C  0.81133873  0.03365421  0.86531795    -0.13400
C30         C  0.81765847  0.00322302  0.88297268     0.00300
C31         C  0.79743760  0.97373248  0.87335635    -0.11900
C32         C  0.77194249  0.97567802  0.84561432     0.02800
C33         C  0.76604285  0.00689822  0.82988448    -0.11300
H34         H  0.82552988  0.05648981  0.87296586     0.08400
H35         H  0.80194245  0.94985550  0.88655050     0.05900
H36         H  0.74609185  0.00893482  0.80942248     0.05700
C37         C  0.90655072  0.17942748  0.85145511     0.02800
C38         C  0.90489521  0.15836621  0.88156131    -0.13400
C39         C  0.93540905  0.14020379  0.89336977     0.00300
C40         C  0.96781954  0.14468185  0.87440675    -0.11900
C41         C  0.96980215  0.16696746  0.84513489     0.02800
C42         C  0.93868770  0.18286879  0.83405360    -0.11300
H43         H  0.87974263  0.15482524  0.89458510     0.08400
H44         H  0.99126449  0.13076193  0.88235031     0.05900
H45         H  0.93938783  0.19868297  0.81092628     0.05700
C46         C  0.90778293  0.90155149  0.82162242     0.02800
C47         C  0.91424213  0.92271426  0.85030825    -0.13400
C48         C  0.94697590  0.92178682  0.86782636     0.00300
C49         C  0.97474561  0.90119443  0.85404632    -0.11900
C50         C  0.96853067  0.88168272  0.82313236     0.02800
C51         C  0.93474508  0.88118456  0.80853987    -0.11300
H52         H  0.89309863  0.93880021  0.86010004     0.08400
H53         H  0.00058204  0.90096598  0.86649623     0.05900
H54         H  0.92928582  0.86425562  0.78662166     0.05700
C55         C  0.10632588  0.05958810  0.87552102     0.02800
C56         C  0.10738906  0.03893525  0.84582406    -0.13400
C57         C  0.08524996  0.01046711  0.84297751     0.00300
C58         C  0.05800869  0.00655783  0.86777885    -0.11900
C59         C  0.05454877  0.03021732  0.89504658     0.02800
C60         C  0.08097635  0.05407423  0.90089350    -0.11300
H61         H  0.12633159  0.04460044  0.82542945     0.08400
H62         H  0.04055941  0.98476370  0.86715631     0.05900
H63         H  0.08063795  0.06969983  0.92431444     0.05700
C64         C  0.91144395  0.83561813  0.13162778     0.02800
C65         C  0.94269776  0.81674231  0.13204591    -0.13400
C66         C  0.97474830  0.83003846  0.12012092     0.00300
C67         C  0.97474992  0.86184447  0.10273697    -0.11900
C68         C  0.94306014  0.88134149  0.09952670     0.02800
C69         C  0.91182125  0.86849588  0.11584812    -0.11300
H70         H  0.94292423  0.79250482  0.14548914     0.08400
H71         H  0.99947423  0.87199819  0.09303021     0.05900
H72         H  0.88822579  0.88400596  0.11591292     0.05700
C73         C  0.78246984  0.02628452  0.15978149     0.02800
C74         C  0.81048203  0.02178735  0.13623561    -0.13400
C75         C  0.81448625  0.99151934  0.11705793     0.00300
C76         C  0.79268098  0.96309834  0.12581020    -0.11900
C77         C  0.76623913  0.96664751  0.15228327     0.02800
C78         C  0.76024750  0.99881234  0.16678101    -0.11300
H79         H  0.82933215  0.04204319  0.13236212     0.08400
H80         H  0.79702790  0.93868623  0.11338334     0.05900
H81         H  0.73877526  0.00195565  0.18532181     0.05700
C82         C  0.90147965  0.14018233  0.18946749     0.02800
C83         C  0.93402913  0.14156603  0.20675422    -0.13400
C84         C  0.96520405  0.12941564  0.19165854     0.00300
C85         C  0.96289816  0.11242667  0.15868511    -0.11900
C86         C  0.93001009  0.10961780  0.14024564     0.02800
C87         C  0.89932974  0.12430722  0.15595553    -0.11300
H88         H  0.93541084  0.15505818  0.23158744     0.08400
H89         H  0.98657940  0.10166156  0.14717088     0.05900
H90         H  0.87408764  0.12324809  0.14239600     0.05700
Zr91       Zr  0.21710367  0.29359374  0.30740620     2.17500
O92         O  0.27260246  0.28654891  0.33975961    -0.51700
O93         O  0.20413727  0.34251434  0.34258072    -0.74900
O94         O  0.26503573  0.32758722  0.28904293    -0.81700
O95         O  0.16015387  0.26231341  0.37647344    -0.83400
O96         O  0.26523925  0.32987777  0.22960964    -0.79000
O97         O  0.21290074  0.25449746  0.35446222    -0.90700
O98         O  0.17252380  0.37515996  0.30551638    -0.76600
O99         O  0.19566301  0.32925036  0.26199581    -0.86100
O100        O  0.15539043  0.30064387  0.31954552    -0.85800
O101        O  0.23342772  0.26653095  0.25362033    -0.72600
O102        O  0.19403663  0.23729851  0.30809860    -0.84700
Zr103      Zr  0.12296248  0.25252540  0.22059162     2.26400
Zr104      Zr  0.20923720  0.30127789  0.20782287     2.06300
Zr105      Zr  0.13155704  0.24406091  0.32005403     2.10000
Zr106      Zr  0.13429492  0.33603868  0.27438074     1.78800
O107        O  0.13661695  0.19267712  0.35482969    -0.93500
O108        O  0.13208633  0.38734921  0.23905108    -0.41300
O109        O  0.10822408  0.28041133  0.27448505    -0.78000
O110        O  0.14699891  0.30922208  0.21998656    -0.96600
O111        O  0.18476216  0.24499976  0.20826558    -0.90000
O112        O  0.14682320  0.21710217  0.26554548    -0.92800
C113        C  0.19384759  0.37131141  0.33130284     1.01000
C114        C  0.19403470  0.26521815  0.37942721     1.13900
C115        C  0.27893604  0.33625017  0.26027014     1.04700
O116        O  0.19448087  0.35354241  0.17723246    -0.94900
O117        O  0.18513543  0.27151453  0.15413232    -0.90700
O118        O  0.12837136  0.27964234  0.16552968    -0.83800
C119        C  0.15212861  0.26888370  0.14517954     1.11300
O120        O  0.26488372  0.19580176  0.28034916    -0.96900
Zr121      Zr  0.20825158  0.21078782  0.25362977     1.88900
O122        O  0.12659278  0.19515850  0.19764681    -0.73600
O123        O  0.25806427  0.29617257  0.16637414    -0.52800
O124        O  0.25073041  0.19791083  0.20758165    -0.97500
O125        O  0.21138938  0.15905773  0.28817093    -0.54700
O126        O  0.17555527  0.16905536  0.22004033    -0.74100
C127        C  0.14641021  0.16920838  0.20273736     0.98300
O128        O  0.07318797  0.26116371  0.18030017    -0.62900
O129        O  0.07931346  0.26363324  0.35151533    -0.57700
O130        O  0.06961067  0.23925525  0.25204300    -0.94400
O131        O  0.08398796  0.20600949  0.29651991    -0.92800
O132        O  0.09605072  0.35397970  0.32236338    -0.93200
O133        O  0.07661283  0.35188474  0.25067483    -0.92000
C134        C  0.06639384  0.21113465  0.26801516     1.17100
H135        H  0.15027761  0.31175335  0.34137296     0.33000
H136        H  0.13642749  0.32399912  0.20289954     0.43900
H137        H  0.13656379  0.19450260  0.26532330     0.37400
H138        H  0.25900130  0.26512961  0.25166108     0.33900
H139        H  0.13032195  0.40627784  0.25614570     0.25700
H140        H  0.27840339  0.28773462  0.18029287     0.31600
H141        H  0.26757753  0.21720642  0.20800502     0.37500
H142        H  0.11221945  0.36280237  0.34074446     0.32000
H143        H  0.08700508  0.28500402  0.36307586     0.30900
H144        H  0.16208287  0.18663529  0.35367623     0.32600
H145        H  0.21470259  0.14044499  0.27093129     0.31500
H146        H  0.06744986  0.33080977  0.23962703     0.35500
H147        H  0.07250661  0.24137894  0.16421311     0.28300
H148        H  0.28067354  0.30933536  0.34753933     0.32500
H149        H  0.27432595  0.21736932  0.29004246     0.35300
H150        H  0.06269602  0.27110627  0.33295941     0.27900
H151        H  0.05094181  0.26010423  0.19384089     0.40800
H152        H  0.20641265  0.37162433  0.19100444     0.30900
H153        H  0.15620544  0.38944143  0.22923206     0.38500
H154        H  0.18707927  0.15587951  0.29720062     0.30300
H155        H  0.25189387  0.27672125  0.15098310     0.30400
H156        H  0.29048767  0.27840586  0.32277210     0.30700
C157        C  0.09239620  0.04111981  0.15576179     0.02800
C158        C  0.06489767  0.03845866  0.13144161    -0.13400
C159        C  0.05096231  0.00677066  0.12214081     0.00300
C160        C  0.06451179  0.97704283  0.13866890    -0.11900
C161        C  0.09228441  0.97999892  0.16389051     0.02800
C162        C  0.10573943  0.01210960  0.17188498    -0.11300
H163        H  0.05425055  0.06135119  0.11965431     0.08400
H164        H  0.05408026  0.95226207  0.13174855     0.05900
H165        H  0.12702857  0.01456234  0.19093147     0.05700
Zr166      Zr  0.24318139  0.72224505  0.26425621     2.17500
O167        O  0.29732962  0.68785934  0.26566791    -0.51700
O168        O  0.23222486  0.69051617  0.31769391    -0.74900
O169        O  0.29214397  0.75502414  0.28688553    -0.81700
O170        O  0.19076457  0.65269831  0.22972960    -0.83400
O171        O  0.26876773  0.79600295  0.31973268    -0.79000
O172        O  0.24587015  0.67199030  0.22884862    -0.90700
O173        O  0.18903039  0.71868590  0.34688747    -0.76600
O174        O  0.21587240  0.76396861  0.30090677    -0.86100
O175        O  0.18173565  0.70729086  0.26800443    -0.85800
O176        O  0.25487044  0.77640335  0.23665276    -0.72600
O177        O  0.22225654  0.72087283  0.20471197    -0.84700
Zr178      Zr  0.14389294  0.80197450  0.21968804     2.26400
Zr179      Zr  0.22679899  0.81823269  0.27419960     2.06300
Zr180      Zr  0.16034127  0.70576981  0.20846093     2.10000
Zr181      Zr  0.15507209  0.74901841  0.30409294     1.78800
O182        O  0.17199092  0.67660895  0.15334005    -0.93500
O183        O  0.14977056  0.78301023  0.35731666    -0.41300
O184        O  0.13223377  0.74773532  0.24575174    -0.78000
O185        O  0.16515877  0.80355623  0.27939528    -0.96600
O186        O  0.20478067  0.81695460  0.21529780    -0.90000
O187        O  0.17030358  0.76048942  0.18170749    -0.92800
C188        C  0.21469271  0.69760541  0.34540778     1.01000
C189        C  0.22427012  0.64829175  0.23582569     1.13900
C190        C  0.29032076  0.77074000  0.31591145     1.04700
O191        O  0.21540888  0.85688662  0.32288958    -0.94900
O192        O  0.19831810  0.87029306  0.24824190    -0.90700
O193        O  0.14193293  0.85430530  0.25128662    -0.83800
C194        C  0.16483956  0.87660150  0.24432524     1.11300
O195        O  0.29032469  0.75470497  0.16435094    -0.96900
Zr196      Zr  0.23111995  0.77533299  0.17840106     1.88900
O197        O  0.14921048  0.82539074  0.16154563    -0.73600
O198        O  0.28011435  0.85105834  0.26282861    -0.52800
O199        O  0.27336501  0.81785444  0.15890564    -0.97500
O200        O  0.22264403  0.74171381  0.12516824    -0.54700
O201        O  0.20394163  0.81579631  0.13922183    -0.74100
C202        C  0.17287022  0.82875770  0.13782861     0.98300
O203        O  0.09122216  0.83637176  0.20802672    -0.62900
O204        O  0.11321645  0.66487347  0.21883679    -0.57700
O205        O  0.09511666  0.76343149  0.21664025    -0.94400
O206        O  0.10720113  0.72685324  0.17495225    -0.92800
O207        O  0.11914724  0.70020147  0.32021479    -0.93200
O208        O  0.09455762  0.76713540  0.31607003    -0.92000
C209        C  0.08759348  0.75115546  0.18676571     1.17100
H210        H  0.17816306  0.68578812  0.27946570     0.33000
H211        H  0.15341444  0.81899199  0.29546747     0.43900
H212        H  0.15998279  0.76094348  0.15857645     0.37400
H213        H  0.27972772  0.78145037  0.23419530     0.33900
H214        H  0.14774997  0.76629172  0.37646507     0.25700
H215        H  0.27787845  0.85770841  0.23797693     0.31600
H216        H  0.27716711  0.83270231  0.17956584     0.37500
H217        H  0.11882422  0.70060483  0.34613016     0.32000
H218        H  0.09417859  0.67822783  0.23021945     0.30900
H219        H  0.19757549  0.67100721  0.15427512     0.32600
H220        H  0.24357629  0.72663094  0.12355744     0.31500
H221        H  0.08675501  0.77877700  0.29446736     0.35500
H222        H  0.08052462  0.84164345  0.23106564     0.28300
H223        H  0.29511280  0.67267912  0.28609779     0.32500
H224        H  0.29507897  0.73673708  0.18177961     0.35300
H225        H  0.10376335  0.65932971  0.19527140     0.27900
H226        H  0.09946898  0.85846824  0.19887159     0.40800
H227        H  0.23686923  0.85545926  0.33781390     0.30900
H228        H  0.17346341  0.79339178  0.36060011     0.38500
H229        H  0.22560715  0.75806000  0.10578290     0.30300
H230        H  0.27652614  0.87253627  0.27598844     0.30400
H231        H  0.31806931  0.70237922  0.27089491     0.30700
Zr232      Zr  0.72725870  0.23759442  0.21594819     2.17500
O233        O  0.77056563  0.23522842  0.16868605    -0.51700
O234        O  0.73768183  0.17740371  0.20909430    -0.74900
O235        O  0.78627329  0.24433838  0.23682685    -0.81700
O236        O  0.65344929  0.22843083  0.15469035    -0.83400
O237        O  0.78255544  0.22285517  0.29045832    -0.79000
O238        O  0.70731330  0.25086829  0.15800751    -0.90700
O239        O  0.70573679  0.14752474  0.24828161    -0.76600
O240        O  0.72294685  0.21363835  0.27277488    -0.86100
O241        O  0.66998046  0.21193768  0.21931204    -0.85800
O242        O  0.73841700  0.28431936  0.25575558    -0.72600
O243        O  0.68661236  0.28256460  0.20320521    -0.84700
Zr244      Zr  0.63483097  0.27998106  0.30535859     2.26400
Zr245      Zr  0.73294132  0.25954727  0.31323380     2.06300
Zr246      Zr  0.62856763  0.25750199  0.20766609     2.10000
Zr247      Zr  0.66615649  0.18856789  0.27616033     1.78800
O248        O  0.61704858  0.29762136  0.16072469    -0.93500
O249        O  0.68828990  0.15439271  0.32452297    -0.41300
O250        O  0.62410641  0.23333745  0.26539851    -0.78000
O251        O  0.67528240  0.23365967  0.31787391    -0.96600
O252        O  0.69206215  0.30488571  0.30126712    -0.90000
O253        O  0.63888060  0.30378357  0.24817893    -0.92800
C254        C  0.72876603  0.14952226  0.22375190     1.01000
C255        C  0.68534035  0.23126682  0.14282576     1.13900
C256        C  0.79782159  0.22454591  0.26024904     1.04700
O257        O  0.74860668  0.22579972  0.36423895    -0.94900
O258        O  0.70827233  0.29470212  0.36320288    -0.90700
O259        O  0.65341611  0.27403363  0.36477331    -0.83800
C260        C  0.67718459  0.29317754  0.37752102     1.11300
O261        O  0.74325062  0.34659821  0.20527455    -0.96900
Zr262      Zr  0.69603732  0.32797066  0.24400688     1.88900
O263        O  0.62523727  0.34134352  0.31021499    -0.73600
O264        O  0.78539384  0.29343725  0.32614398    -0.52800
O265        O  0.73479459  0.36946463  0.27216015    -0.97500
O266        O  0.66947183  0.35857852  0.19510901    -0.54700
O267        O  0.66058068  0.37044800  0.27323007    -0.74100
C268        C  0.63663582  0.36916203  0.29674178     0.98300
O269        O  0.58596496  0.28625719  0.34666410    -0.62900
O270        O  0.57989708  0.22179375  0.18718645    -0.57700
O271        O  0.57809306  0.26236237  0.28445778    -0.94400
O272        O  0.57425068  0.28564607  0.23217191    -0.92800
O273        O  0.63113548  0.14488435  0.24656833    -0.93200
O274        O  0.61666480  0.17096388  0.31256038    -0.92000
C275        C  0.56286138  0.28281955  0.26381817     1.17100
H276        H  0.66778894  0.19339357  0.20280289     0.33000
H277        H  0.67241402  0.22352597  0.34063861     0.43900
H278        H  0.62193167  0.32199915  0.24467578     0.37400
H279        H  0.76134086  0.29501251  0.25329420     0.33900
H280        H  0.68963479  0.13094358  0.31504596     0.25700
H281        H  0.77596441  0.31535572  0.33495421     0.31600
H282        H  0.72928906  0.39126519  0.26050356     0.37500
H283        H  0.62252474  0.15553346  0.22473152     0.32000
H284        H  0.57723059  0.20440310  0.20560075     0.30900
H285        H  0.60054420  0.31448953  0.17099797     0.32600
H286        H  0.68327058  0.37986636  0.19322646     0.31500
H287        H  0.59534982  0.18074527  0.30122413     0.35500
H288        H  0.58504252  0.26465035  0.35978098     0.28300
H289        H  0.78814292  0.21769444  0.17536501     0.32500
H290        H  0.74095563  0.33185270  0.18429632     0.35300
H291        H  0.55836067  0.23605747  0.18919434     0.27900
H292        H  0.59337810  0.30369178  0.36398907     0.40800
H293        H  0.74755095  0.24180782  0.38428069     0.30900
H294        H  0.71331417  0.16144182  0.32745347     0.38500
H295        H  0.64590909  0.36602161  0.20353269     0.30300
H296        H  0.79606585  0.28255293  0.34697737     0.30400
H297        H  0.78358249  0.25705724  0.16998360     0.30700
Zr298      Zr  0.64218575  0.70922706  0.26575983     2.17500
O299        O  0.59814600  0.66887919  0.24328029    -0.51700
O300        O  0.63543479  0.69494480  0.32686361    -0.74900
O301        O  0.66983154  0.65485865  0.25987403    -0.81700
O302        O  0.57353319  0.77770604  0.27913584    -0.83400
O303        O  0.72033736  0.66184052  0.28753699    -0.79000
O304        O  0.58190098  0.72028035  0.27935275    -0.90700
O305        O  0.66811703  0.73081523  0.36064368    -0.76600
O306        O  0.69853318  0.71561859  0.29375295    -0.86100
O307        O  0.64209021  0.76306477  0.29484208    -0.85800
O308        O  0.68447789  0.70206014  0.21910267    -0.72600
O309        O  0.62701444  0.74939862  0.22143530    -0.84700
Zr310      Zr  0.72702794  0.80334894  0.23111634     2.26400
Zr311      Zr  0.74121500  0.70970457  0.24788303     2.06300
Zr312      Zr  0.62742720  0.80382375  0.25095383     2.10000
Zr313      Zr  0.69838946  0.76961271  0.32148052     1.78800
O314        O  0.57783791  0.81561338  0.21191907    -0.93500
O315        O  0.74808210  0.74984430  0.35673489    -0.41300
O316        O  0.68532644  0.81099458  0.27769326    -0.78000
O317        O  0.74229571  0.76408996  0.27681794    -0.96600
O318        O  0.72241107  0.75004916  0.20842612    -0.90000
O319        O  0.67002928  0.79821275  0.20415119    -0.92800
C320        C  0.64641265  0.70598124  0.35659351     1.01000
C321        C  0.56338524  0.74672611  0.28557891     1.13900
C322        C  0.69005976  0.64645396  0.28471276     1.04700
O323        O  0.79525650  0.69860745  0.28092925    -0.94900
O324        O  0.79169939  0.73817921  0.21554035    -0.90700
O325        O  0.78892870  0.79177844  0.23573222    -0.83800
C326        C  0.80419660  0.76896149  0.21763302     1.11300
O327        O  0.63278289  0.69923460  0.15534575    -0.96900
Zr328      Zr  0.67116038  0.74443222  0.17680112     1.88900
O329        O  0.73013844  0.82025074  0.17051180    -0.73600
O330        O  0.75774707  0.66074180  0.21222344    -0.52800
O331        O  0.69928538  0.71087553  0.13096374    -0.97500
O332        O  0.62438365  0.76951072  0.14114790    -0.54700
O333        O  0.70229341  0.78090132  0.13704300    -0.74100
C334        C  0.72098738  0.80770596  0.14083722     0.98300
O335        O  0.77483963  0.84496694  0.22974895    -0.62900
O336        O  0.60801309  0.84808124  0.29148413    -0.57700
O337        O  0.69940005  0.85394202  0.25234697    -0.94400
O338        O  0.64845718  0.85861834  0.22496854    -0.92800
O339        O  0.66781294  0.80346685  0.36563643    -0.93200
O340        O  0.73188030  0.81972167  0.33924959    -0.92000
C341        C  0.68015215  0.86966696  0.23045958     1.17100
H342        H  0.62520201  0.76365993  0.31374057     0.33000
H343        H  0.76522439  0.76822128  0.28738156     0.43900
H344        H  0.66583306  0.81478382  0.18634629     0.37400
H345        H  0.68329462  0.68036767  0.20712785     0.33900
H346        H  0.73860875  0.74824818  0.38077114     0.25700
H347        H  0.74217585  0.64218848  0.22040025     0.31600
H348        H  0.72071856  0.70122742  0.14211637     0.37500
H349        H  0.67688139  0.79494537  0.38830268     0.32000
H350        H  0.60632169  0.83650332  0.31435056     0.30900
H351        H  0.58765279  0.81257988  0.18812836     0.32600
H352        H  0.62910139  0.76097496  0.11717974     0.31500
H353        H  0.74875022  0.82358933  0.31988290     0.35500
H354        H  0.77035744  0.85936606  0.20907250     0.28300
H355        H  0.61134525  0.65198387  0.22912347     0.32500
H356        H  0.62314214  0.68860765  0.17664292     0.35300
H357        H  0.62868560  0.86338952  0.29409967     0.27900
H358        H  0.77111910  0.85987605  0.25035133     0.40800
H359        H  0.79033355  0.67740672  0.29385738     0.30900
H360        H  0.75171182  0.72596294  0.34923421     0.38500
H361        H  0.62992830  0.79405607  0.14000722     0.30300
H362        H  0.74894129  0.66602591  0.18845152     0.30400
H363        H  0.58406670  0.68162877  0.22581558     0.30700
C364        C  0.08761780  0.18004281  0.04267369     0.02800
C365        C  0.10048575  0.19257926  0.01146051    -0.13400
C366        C  0.08641273  0.18363272  0.97919159     0.00300
C367        C  0.05714081  0.16003470  0.97841123    -0.11900
C368        C  0.04356680  0.14500959  0.01013736     0.02800
C369        C  0.05926700  0.15615884  0.04233350    -0.11300
H370        H  0.12150900  0.21145699  0.01255970     0.08400
H371        H  0.04517429  0.15325619  0.95366868     0.05900
H372        H  0.04960825  0.14626119  0.06689494     0.05700
Zr373      Zr  0.15074990  0.24294891  0.80819244     2.17500
O374        O  0.09450985  0.24065409  0.83873373    -0.51700
O375        O  0.17196991  0.20181760  0.84802118    -0.74900
O376        O  0.11941988  0.19441906  0.78619904    -0.81700
O377        O  0.19764966  0.27757188  0.87875984    -0.83400
O378        O  0.10128526  0.21263363  0.73373347    -0.79000
O379        O  0.14421719  0.28065618  0.85605680    -0.90700
O380        O  0.20495772  0.16730015  0.81438002    -0.76600
O381        O  0.17694966  0.21653345  0.76250765    -0.86100
O382        O  0.21289854  0.24097784  0.82209798    -0.85800
O383        O  0.13078194  0.27036779  0.75574034    -0.72600
O384        O  0.16794178  0.30123606  0.81102719    -0.84700
Zr385      Zr  0.24054614  0.29150281  0.72498824     2.26400
Zr386      Zr  0.15821626  0.23742019  0.70961345     2.06300
Zr387      Zr  0.23028475  0.29897651  0.82460048     2.10000
Zr388      Zr  0.23491855  0.20694443  0.77597156     1.78800
O389        O  0.22789032  0.34928093  0.86195223    -0.93500
O390        O  0.23162781  0.15640389  0.73891763    -0.41300
O391        O  0.25654594  0.26430790  0.77887694    -0.78000
O392        O  0.22115086  0.23287007  0.72136856    -0.96600
O393        O  0.17869189  0.29497917  0.71127287    -0.90000
O394        O  0.21434913  0.32573984  0.77006367    -0.92800
C395        C  0.18488080  0.17288732  0.84071831     1.01000
C396        C  0.16375971  0.27239804  0.88150570     1.13900
C397        C  0.09551101  0.19697692  0.76301644     1.04700
O398        O  0.16897424  0.18249788  0.68168021    -0.94900
O399        O  0.18284897  0.26752804  0.65609935    -0.90700
O400        O  0.23988415  0.26441025  0.66938216    -0.83800
C401        C  0.21583328  0.27305104  0.64814249     1.11300
O402        O  0.09549724  0.33834478  0.78460980    -0.96900
Zr403      Zr  0.15245744  0.32750592  0.75687851     1.88900
O404        O  0.23012224  0.34852653  0.70324486    -0.73600
O405        O  0.11030517  0.24004661  0.66682854    -0.52800
O406        O  0.11083581  0.33596830  0.70869003    -0.97500
O407        O  0.14996290  0.38202298  0.78764993    -0.54700
O408        O  0.17836840  0.37124593  0.72230642    -0.74100
C409        C  0.20787664  0.37291049  0.70646859     0.98300
O410        O  0.29159788  0.29679748  0.68607094    -0.62900
O411        O  0.28023533  0.27881845  0.85927443    -0.57700
O412        O  0.29364017  0.30168062  0.75842311    -0.94400
O413        O  0.27864644  0.33670772  0.80139968    -0.92800
O414        O  0.27616727  0.18204363  0.81773707    -0.93200
O415        O  0.29580300  0.20164215  0.75594924    -0.92000
C416        C  0.29784233  0.32976529  0.77435607     1.17100
H417        H  0.22174312  0.23163425  0.84336084     0.33000
H418        H  0.23277393  0.21880066  0.70411140     0.43900
H419        H  0.22349794  0.34860124  0.77010680     0.37400
H420        H  0.10524824  0.27086492  0.75421110     0.33900
H421        H  0.23828724  0.13746256  0.75458278     0.25700
H422        H  0.11207427  0.26303109  0.65657873     0.31600
H423        H  0.11351907  0.36007167  0.70187393     0.37500
H424        H  0.27642460  0.15745938  0.81197482     0.32000
H425        H  0.30041829  0.27825959  0.84280181     0.30900
H426        H  0.23005964  0.36862639  0.84564374     0.32600
H427        H  0.13940254  0.39818619  0.77077062     0.31500
H428        H  0.30131212  0.22371993  0.74497063     0.35500
H429        H  0.28952278  0.31942201  0.67518636     0.28300
H430        H  0.08602934  0.21690585  0.83811418     0.32500
H431        H  0.10056473  0.33805896  0.81006021     0.35300
H432        H  0.28567734  0.29778039  0.87555381     0.27900
H433        H  0.31385370  0.29748791  0.69981055     0.40800
H434        H  0.19139843  0.18540528  0.66867026     0.30900
H435        H  0.20597659  0.15307771  0.73456040     0.38500
H436        H  0.17495446  0.38937759  0.79017033     0.30300
H437        H  0.11766183  0.22443203  0.64777420     0.30400
H438        H  0.07805788  0.25400428  0.82406039     0.30700
Zr439      Zr  0.13477938  0.81037752  0.77190737     2.17500
O440        O  0.09299362  0.82183605  0.81923681    -0.51700
O441        O  0.11460168  0.86862623  0.77158059    -0.74900
O442        O  0.16207408  0.81349697  0.82794621    -0.81700
O443        O  0.06230824  0.79129913  0.71140220    -0.83400
O444        O  0.21426162  0.83894566  0.81740828    -0.79000
O445        O  0.08300499  0.77637887  0.76295257    -0.90700
O446        O  0.14906611  0.89801012  0.73386663    -0.76600
O447        O  0.18570115  0.84203713  0.75583836    -0.86100
O448        O  0.12553632  0.82646574  0.71232058    -0.85800
O449        O  0.18455134  0.77324732  0.78339843    -0.72600
O450        O  0.12521909  0.75799090  0.74083958    -0.84700
Zr451      Zr  0.21895736  0.76983808  0.67533555     2.26400
Zr452      Zr  0.23543297  0.80549033  0.76598589     2.06300
Zr453      Zr  0.11701487  0.77391825  0.68048901     2.10000
Zr454      Zr  0.17741920  0.85710318  0.69634384     1.78800
O455        O  0.07301467  0.72956036  0.67116072    -0.93500
O456        O  0.22491746  0.89791601  0.70620479    -0.41300
O457        O  0.16897798  0.80565954  0.66419005    -0.78000
O458        O  0.22865302  0.82213387  0.70584751    -0.96600
O459        O  0.22667089  0.75356504  0.73472722    -0.90000
O460        O  0.16736371  0.73830753  0.69190390    -0.92800
C461        C  0.12668465  0.89620400  0.75878605     1.01000
C462        C  0.05871669  0.78992739  0.74480194     1.13900
C463        C  0.18638195  0.83431547  0.83629459     1.04700
O464        O  0.27966331  0.85016265  0.76006481    -0.94900
O465        O  0.28722580  0.77135604  0.74584646    -0.90700
O466        O  0.28131964  0.76535226  0.68695565    -0.83800
C467        C  0.29865014  0.76165458  0.71546331     1.11300
O468        O  0.14058921  0.70864399  0.80198370    -0.96900
Zr469      Zr  0.17554756  0.72227341  0.75049017     1.88900
O470        O  0.22837162  0.71037523  0.66614141    -0.73600
O471        O  0.26549401  0.78778222  0.81935666    -0.52800
O472        O  0.21239789  0.69299039  0.79323378    -0.97500
O473        O  0.13581174  0.67511319  0.73685419    -0.54700
O474        O  0.20766343  0.68227226  0.71381137    -0.74100
C475        C  0.22259938  0.68344079  0.68369888     0.98300
O476        O  0.25531592  0.78768403  0.62602367    -0.62900
O477        O  0.09255102  0.80839039  0.63348271    -0.57700
O478        O  0.18342240  0.76897641  0.62321051    -0.94400
O479        O  0.13604311  0.73773692  0.63025685    -0.92800
O480        O  0.13856514  0.89446340  0.66292630    -0.93200
O481        O  0.19877151  0.86999382  0.63774819    -0.92000
C482        C  0.16656826  0.74189513  0.61612564     1.17100
H483        H  0.10493759  0.84090635  0.70996262     0.33000
H484        H  0.24990181  0.83309858  0.69729252     0.43900
H485        H  0.16441532  0.71729843  0.67930600     0.37400
H486        H  0.18765872  0.76557990  0.80732194     0.33900
H487        H  0.21368045  0.92034388  0.70238025     0.25700
H488        H  0.26759108  0.76277485  0.81704644     0.31600
H489        H  0.23703983  0.69770253  0.78593410     0.37500
H490        H  0.11423443  0.88629090  0.66756170     0.32000
H491        H  0.11104556  0.82556772  0.62865199     0.30900
H492        H  0.08031459  0.71117447  0.68724546     0.32600
H493        H  0.13755351  0.67160289  0.71124094     0.31500
H494        H  0.20053200  0.84788066  0.62535429     0.35500
H495        H  0.27361776  0.76994286  0.62268084     0.28300
H496        H  0.10162835  0.84234439  0.83179630     0.32500
H497        H  0.13034091  0.73062807  0.80969281     0.35300
H498        H  0.09271227  0.79329923  0.61267151     0.27900
H499        H  0.26842105  0.80799322  0.63444449     0.40800
H500        H  0.30162746  0.84047577  0.77020019     0.30900
H501        H  0.22938703  0.89711508  0.73174319     0.38500
H502        H  0.11170039  0.68445963  0.74032779     0.30300
H503        H  0.29005794  0.79624903  0.81698328     0.30400
H504        H  0.09604205  0.80307295  0.83611084     0.30700
Zr505      Zr  0.72656521  0.23566104  0.79779510     2.17500
O506        O  0.76549407  0.23373620  0.84902660    -0.51700
O507        O  0.75765993  0.18367857  0.78443700    -0.74900
O508        O  0.70313108  0.20669994  0.84671902    -0.81700
O509        O  0.79863916  0.27033081  0.74981453    -0.83400
O510        O  0.64367867  0.19939139  0.84079900    -0.79000
O511        O  0.77543340  0.27363140  0.80252095    -0.90700
O512        O  0.72247039  0.15610654  0.74542946    -0.76600
O513        O  0.68031899  0.20258660  0.77229591    -0.86100
O514        O  0.74132033  0.23205961  0.73712383    -0.85800
O515        O  0.67235854  0.26367984  0.81347422    -0.72600
O516        O  0.72944835  0.29353248  0.77946771    -0.84700
Zr517      Zr  0.64336720  0.28377648  0.70526251     2.26400
Zr518      Zr  0.62577871  0.23099161  0.78616886     2.06300
Zr519      Zr  0.74387805  0.29030187  0.71821206     2.10000
Zr520      Zr  0.69468667  0.19959507  0.71162187     1.78800
O521        O  0.77972438  0.34127806  0.72528212    -0.93500
O522        O  0.65813300  0.14885703  0.70424898    -0.41300
O523        O  0.69807997  0.25647811  0.69097761    -0.78000
O524        O  0.63928487  0.22565850  0.72463675    -0.96600
O525        O  0.62878621  0.28833093  0.76578802    -0.90000
O526        O  0.68847795  0.31811752  0.73182972    -0.92800
C527        C  0.74567563  0.15679133  0.76977149     1.01000
C528        C  0.80153515  0.26634359  0.78325700     1.13900
C529        C  0.67360403  0.19527806  0.85728556     1.04700
O530        O  0.59072216  0.18000422  0.77491734    -0.94900
O531        O  0.57303790  0.26046366  0.75906339    -0.90700
O532        O  0.58751686  0.25613786  0.70290625    -0.83800
C533        C  0.56561559  0.26470412  0.72622072     1.11300
O534        O  0.70204242  0.33315325  0.84892527    -0.96900
Zr535      Zr  0.67445563  0.32091359  0.79244588     1.88900
O536        O  0.62042930  0.33975963  0.71432581    -0.73600
O537        O  0.58472883  0.24153623  0.83400039    -0.52800
O538        O  0.63123698  0.33037482  0.83876245    -0.97500
O539        O  0.70783782  0.37385043  0.78950769    -0.54700
O540        O  0.63468947  0.36222940  0.76690827    -0.74100
C541        C  0.61906442  0.36350832  0.73718829     0.98300
O542        O  0.60889695  0.30064751  0.65383181    -0.62900
O543        O  0.77936037  0.27336873  0.66795227    -0.57700
O544        O  0.68075188  0.28764496  0.65523320    -0.94400
O545        O  0.72106128  0.32581897  0.66873995    -0.92800
O546        O  0.74312922  0.17959561  0.67490227    -0.93200
O547        O  0.67405654  0.19566851  0.65117739    -0.92000
C548        C  0.69520789  0.31599043  0.64899749     1.17100
H549        H  0.76369271  0.22066257  0.73295169     0.33000
H550        H  0.62223236  0.21135683  0.71282222     0.43900
H551        H  0.68846236  0.34091015  0.72251958     0.37400
H552        H  0.66935884  0.26429935  0.83854268     0.33900
H553        H  0.64790865  0.14493935  0.72769951     0.25700
H554        H  0.58369215  0.26661605  0.83605561     0.31600
H555        H  0.61315004  0.34576355  0.82872867     0.37500
H556        H  0.75780338  0.19999804  0.67068200     0.32000
H557        H  0.79229123  0.29421885  0.66129751     0.30900
H558        H  0.78006750  0.34554110  0.75084435     0.32600
H559        H  0.73274957  0.36724961  0.79419063     0.31500
H560        H  0.65283334  0.21049142  0.65022798     0.35500
H561        H  0.60042891  0.27932121  0.64276933     0.28300
H562        H  0.76919035  0.20948228  0.85476779     0.32500
H563        H  0.71815429  0.31370291  0.85312071     0.35300
H564        H  0.79782735  0.25816943  0.67765550     0.27900
H565        H  0.58717159  0.31186706  0.66265555     0.40800
H566        H  0.58752182  0.17874079  0.74923235     0.30900
H567        H  0.63759235  0.15570941  0.68970612     0.38500
H568        H  0.70063672  0.38721261  0.81033869     0.30300
H569        H  0.56120678  0.23496034  0.82457015     0.30400
H570        H  0.75206756  0.24356841  0.86886124     0.30700
Zr571      Zr  0.71529025  0.79919400  0.79078912     2.17500
O572        O  0.71208477  0.81175457  0.85281009    -0.51700
O573        O  0.75881197  0.84109680  0.77987701    -0.74900
O574        O  0.76866185  0.78092512  0.81857069    -0.81700
O575        O  0.67351771  0.86958851  0.74818238    -0.83400
O576        O  0.75578263  0.72646427  0.82984638    -0.79000
O577        O  0.67875211  0.84734172  0.80115428    -0.90700
O578        O  0.79217527  0.82072409  0.73516584    -0.76600
O579        O  0.74649380  0.76141741  0.75892029    -0.86100
O580        O  0.71559371  0.81886427  0.73186594    -0.85800
O581        O  0.69162397  0.74433508  0.80381959    -0.72600
O582        O  0.65421620  0.79893062  0.77480703    -0.84700
Zr583      Zr  0.67153048  0.72289863  0.69403870     2.26400
Zr584      Zr  0.73069321  0.70706168  0.77182160     2.06300
Zr585      Zr  0.65476137  0.81704473  0.71487796     2.10000
Zr586      Zr  0.75420829  0.78042064  0.70343069     1.78800
O587        O  0.59665732  0.84209861  0.72554291    -0.93500
O588        O  0.81299694  0.75468313  0.70490843    -0.41300
O589        O  0.69383197  0.77882496  0.68350270    -0.78000
O590        O  0.73271754  0.72354271  0.71095705    -0.96600
O591        O  0.67024615  0.70479194  0.75329125    -0.90000
O592        O  0.63201268  0.76069899  0.72343040    -0.92800
C593        C  0.78691798  0.84058308  0.76151406     1.01000
C594        C  0.68159115  0.87253833  0.78103342     1.13900
C595        C  0.77018295  0.75525531  0.83837525     1.04700
O596        O  0.78846862  0.69013660  0.74915172    -0.94900
O597        O  0.69762579  0.65560468  0.75075616    -0.90700
O598        O  0.69431442  0.66595080  0.69335755    -0.83800
C599        C  0.68956837  0.64624364  0.71914397     1.11300
O600        O  0.61843586  0.75749547  0.84306385    -0.96900
Zr601      Zr  0.63148223  0.74275101  0.78246788     1.88900
O602        O  0.61904455  0.68932256  0.70051504    -0.73600
O603        O  0.74622559  0.65785651  0.80712417    -0.52800
O604        O  0.61630893  0.69496595  0.81964714    -0.97500
O605        O  0.57602391  0.77478985  0.78220260    -0.54700
O606        O  0.59258712  0.70386379  0.75137414    -0.74100
C607        C  0.59362683  0.68743707  0.72229116     0.98300
O608        O  0.68194216  0.70462097  0.63382236    -0.62900
O609        O  0.66632305  0.86052658  0.67135338    -0.57700
O610        O  0.63281187  0.74518895  0.65083556    -0.94400
O611        O  0.61883265  0.80041156  0.66298514    -0.92800
O612        O  0.76288478  0.82592325  0.66140055    -0.93200
O613        O  0.76472042  0.76121378  0.64365029    -0.92000
C614        C  0.61609315  0.77272487  0.64480874     1.17100
H615        H  0.72458030  0.84153478  0.72798852     0.33000
H616        H  0.74642603  0.70771301  0.69697544     0.43900
H617        H  0.60824027  0.75899066  0.71414008     0.37400
H618        H  0.69188091  0.74002347  0.82870987     0.33900
H619        H  0.81215631  0.73606129  0.68737237     0.25700
H620        H  0.77216683  0.65938950  0.81087787     0.31600
H621        H  0.63466090  0.67764435  0.81453704     0.37500
H622        H  0.76465097  0.84700341  0.67556330     0.32000
H623        H  0.68252375  0.84944579  0.65445135     0.30900
H624        H  0.59192548  0.85632169  0.70474170     0.32600
H625        H  0.56268322  0.76636762  0.76154531     0.31500
H626        H  0.74239656  0.74992517  0.63644469     0.35500
H627        H  0.70645715  0.69562603  0.63352398     0.28300
H628        H  0.72074729  0.83538924  0.85528674     0.32500
H629        H  0.61048661  0.78147317  0.84249997     0.35300
H630        H  0.64374903  0.86331644  0.65838429     0.27900
H631        H  0.66667210  0.68439112  0.63038166     0.40800
H632        H  0.80579389  0.70054114  0.76553431     0.30900
H633        H  0.82876904  0.77193365  0.69446187     0.38500
H634        H  0.58283643  0.79827768  0.77603036     0.30300
H635        H  0.73577670  0.66237902  0.83041158     0.30400
H636        H  0.68644418  0.81284384  0.85816804     0.30700
C637        C  0.45948818  0.63467732  0.68362531     0.02800
C638        C  0.45131893  0.61187097  0.65675728    -0.13400
C639        C  0.42000873  0.61517458  0.63746610     0.00300
C640        C  0.39533683  0.64063455  0.64676648    -0.11900
C641        C  0.40211344  0.66188200  0.67611452     0.02800
C642        C  0.43455064  0.65917691  0.69364730    -0.11300
H643        H  0.47091869  0.59311182  0.64892131     0.08400
H644        H  0.37137711  0.64352040  0.63155709     0.05900
H645        H  0.44104687  0.67744450  0.71403927     0.05700
C646        C  0.26587732  0.49482756  0.65481699     0.02800
C647        C  0.25122446  0.52714755  0.65743025    -0.13400
C648        C  0.26172316  0.55261309  0.63428141     0.00300
C649        C  0.28817346  0.54539298  0.60970263    -0.11900
C650        C  0.30519651  0.51386739  0.60990637     0.02800
C651        C  0.29375944  0.48830317  0.63197132    -0.11300
H652        H  0.23133848  0.53203303  0.67719718     0.08400
H653        H  0.29675193  0.56466008  0.59149127     0.05900
H654        H  0.30540700  0.46316407  0.63032842     0.05700
C655        C  0.46222532  0.35576882  0.66485428     0.02800
C656        C  0.43180563  0.35534588  0.68541666    -0.13400
C657        C  0.40355006  0.37773985  0.68008306     0.00300
C658        C  0.40496373  0.39887566  0.65001034    -0.11900
C659        C  0.43353595  0.39707942  0.62556828     0.02800
C660        C  0.46280198  0.37573626  0.63397121    -0.11300
H661        H  0.43105264  0.33779325  0.70716820     0.08400
H662        H  0.38463174  0.41771533  0.64585090     0.05900
H663        H  0.48629095  0.37594065  0.61777201     0.05700
C664        C  0.56373462  0.48813817  0.68419122     0.02800
C665        C  0.53713879  0.49425941  0.65953070    -0.13400
C666        C  0.53916684  0.52224486  0.63718373     0.00300
C667        C  0.56534145  0.54758243  0.64405520    -0.11900
C668        C  0.58934594  0.54357275  0.67265065     0.02800
C669        C  0.58927046  0.51299698  0.69092904    -0.11300
H670        H  0.51650602  0.47549220  0.65560369     0.08400
H671        H  0.56645221  0.57020441  0.62810921     0.05900
H672        H  0.60976839  0.50837127  0.71033554     0.05700
C673        C  0.46830402  0.37935465  0.33204997     0.02800
C674        C  0.46854025  0.39683987  0.36474569    -0.13400
C675        C  0.43735151  0.41334190  0.37724726     0.00300
C676        C  0.40543831  0.40912359  0.35743274    -0.11900
C677        C  0.40522642  0.39064308  0.32527980     0.02800
C678        C  0.43733395  0.37878116  0.31206753    -0.11300
H679        H  0.49271511  0.39777981  0.38010895     0.08400
H680        H  0.38094270  0.41937946  0.36754628     0.05900
H681        H  0.43727191  0.36489257  0.28741581     0.05700
C682        C  0.59242364  0.49573123  0.36122771     0.02800
C683        C  0.56222885  0.50124080  0.38174255    -0.13400
C684        C  0.55893332  0.53035113  0.40275261     0.00300
C685        C  0.58425599  0.55685433  0.39903423    -0.11900
C686        C  0.61287259  0.55309245  0.37498669     0.02800
C687        C  0.61751216  0.52171421  0.35817893    -0.11300
H688        H  0.54145091  0.48233422  0.38218736     0.08400
H689        H  0.58067937  0.58060618  0.41305199     0.05900
H690        H  0.63990502  0.51821367  0.34081834     0.05700
C691        C  0.45379363  0.68666973  0.36949823     0.02800
C692        C  0.45425792  0.65426520  0.38581759    -0.13400
C693        C  0.42613063  0.64433859  0.40806699     0.00300
C694        C  0.39631756  0.66627172  0.41091726    -0.11900
C695        C  0.39414563  0.69676003  0.39141466     0.02800
C696        C  0.42361525  0.70688667  0.37219073    -0.11300
H697        H  0.47652614  0.63735098  0.38235568     0.08400
H698        H  0.37439664  0.65900765  0.42744083     0.05900
H699        H  0.42260637  0.73040719  0.35753463     0.05700
C700        C  0.27163200  0.49138220  0.35954460     0.02800
C701        C  0.29673333  0.49735446  0.38535651    -0.13400
C702        C  0.31815476  0.52619952  0.38495866     0.00300
C703        C  0.30967074  0.55264166  0.36045727    -0.11900
C704        C  0.28076213  0.54811367  0.33605864     0.02800
C705        C  0.26472925  0.51609513  0.33439557    -0.11300
H706        H  0.30001731  0.47881374  0.40591988     0.08400
H707        H  0.32403524  0.57643237  0.36132243     0.05900
H708        H  0.24512363  0.51091467  0.31422527     0.05700
C709        C  0.57356826  0.66844553  0.48157910     0.02800
C710        C  0.55636780  0.63867952  0.49089935    -0.13400
C711        C  0.53646577  0.63740944  0.52161847     0.00300
C712        C  0.53865721  0.66443962  0.54615678    -0.11900
C713        C  0.55711994  0.69478467  0.53751313     0.02800
C714        C  0.57152135  0.69681426  0.50354699    -0.11300
H715        H  0.55697134  0.61696434  0.47332596     0.08400
H716        H  0.52694751  0.66096479  0.57162724     0.05900
H717        H  0.58270894  0.72035808  0.49414498     0.05700
C718        C  0.61425563  0.38502561  0.48050443     0.02800
C719        C  0.57931697  0.39875957  0.48114004    -0.13400
C720        C  0.56578709  0.41419684  0.51196856     0.00300
C721        C  0.58561170  0.41043889  0.54341382    -0.11900
C722        C  0.61929065  0.39432120  0.54323437     0.02800
C723        C  0.63433404  0.38551183  0.51110224    -0.11300
H724        H  0.56264917  0.39770009  0.45813975     0.08400
H725        H  0.57418930  0.41896499  0.56770871     0.05900
H726        H  0.66026718  0.37348462  0.51088117     0.05700
C727        C  0.25425415  0.63743584  0.47610901     0.02800
C728        C  0.28545633  0.61875015  0.47997793    -0.13400
C729        C  0.29884639  0.61159183  0.51334124     0.00300
C730        C  0.28125901  0.62481008  0.54321887    -0.11900
C731        C  0.24896770  0.64287857  0.53903678     0.02800
C732        C  0.23535427  0.64774113  0.50546833    -0.11300
H733        H  0.29991678  0.61061798  0.45690297     0.08400
H734        H  0.29283123  0.62179420  0.56890612     0.05900
H735        H  0.21162908  0.66302941  0.50198453     0.05700
C736        C  0.27407032  0.35389767  0.47240500     0.02800
C737        C  0.30298149  0.37708050  0.47029651    -0.13400
C738        C  0.31913489  0.39038199  0.50140150     0.00300
C739        C  0.30549000  0.37920773  0.53431658    -0.11900
C740        C  0.27666182  0.35575924  0.53598984     0.02800
C741        C  0.26182077  0.34406052  0.50497963    -0.11300
H742        H  0.31252195  0.38488677  0.44489361     0.08400
H743        H  0.31690354  0.38906255  0.55835075     0.05900
H744        H  0.24077068  0.32527445  0.50616849     0.05700
O745        O  0.84375757  0.94654892  0.99173448    -0.86800
O746        O  0.04312844  0.97821583  0.99531424    -0.87000
O747        O  0.95198376  0.92815532  0.93017756    -0.88700
O748        O  0.94768315  0.90967503  0.04420396    -0.87400
O749        O  0.93663558  0.94311464  0.09251097    -0.87000
O750        O  0.94361153  0.97504586  0.89552797    -0.88400
O751        O  0.00899394  0.93040672  0.98673531    -0.86900
O752        O  0.89196364  0.91183542  0.98233308    -0.86500
Zr753      Zr  0.94547611  0.94673473  0.99207601     2.84300
O754        O  0.97481175  0.98098678  0.03417414    -1.08400
O755        O  0.90436377  0.98124887  0.96208935    -1.09200
C756        C  0.85816756  0.91722165  0.98497712     1.06300
C757        C  0.03917224  0.94631679  0.98852181     1.06200
C758        C  0.94932068  0.94300362  0.90001588     1.09200
C759        C  0.94247825  0.91362547  0.07755935     1.07000
H760        H  0.99105570  0.98135261  0.94974300     0.32500
O761        O  0.97436772  0.99184169  0.96547273    -1.29400
H762        H  0.89082268  0.95371637  0.04240653     0.32200
O763        O  0.90378918  0.97152128  0.03083962    -1.31100
O764        O  0.02916088  0.08488253  0.00906615    -0.86800
O765        O  0.82542040  0.05801631  0.00084350    -0.88300
O766        O  0.99335137  0.02686742  0.90685781    -0.86900
O767        O  0.99086113  0.00031544  0.10345174    -0.87000
O768        O  0.87501705  0.99487466  0.10009233    -0.86700
O769        O  0.87652577  0.01481870  0.90319039    -0.86500
O770        O  0.92800696  0.11926567  0.95409521    -0.86900
O771        O  0.92438842  0.10387841  0.07623277    -0.86300
O772        O  0.93448856  0.08164281  0.90818901    -0.87400
O773        O  0.93102118  0.05604759  0.11058139    -0.86500
O774        O  0.03379000  0.03192631  0.95172119    -0.86900
O775        O  0.83429972  0.99966207  0.94319577    -0.86700
O776        O  0.83260472  0.99444248  0.05679099    -0.86300
O777        O  0.03275584  0.01723926  0.06384474    -0.86700
O778        O  0.98202768  0.12177811  0.01182221    -0.87000
O779        O  0.86048469  0.10532100  0.00998453    -0.88400
Zr780      Zr  0.00430157  0.02621244  0.00666047     2.83100
Zr781      Zr  0.86304862  0.00606072  0.00052503     2.83500
Zr782      Zr  0.93439613  0.02448695  0.93292898     2.84100
Zr783      Zr  0.93337539  0.00444244  0.07318074     2.83400
Zr784      Zr  0.92480057  0.08662979  0.01187593     2.84200
O785        O  0.89500515  0.04051546  0.04052966    -1.08900
O786        O  0.96452687  0.05922251  0.97390801    -1.08400
C787        C  0.01625905  0.11554106  0.01007204     1.06200
C788        C  0.82966226  0.09061881  0.00489496     1.08900
C789        C  0.02514317  0.02946712  0.91928135     1.06400
C790        C  0.02313503  0.00695861  0.09451324     1.06800
C791        C  0.84252113  0.99206130  0.08929665     1.06400
C792        C  0.84480217  0.00486203  0.91156305     1.05900
C793        C  0.93231642  0.11217299  0.92066030     1.06300
C794        C  0.92788237  0.08870949  0.10663460     1.05800
H795        H  0.87776870  0.06364235  0.95756864     0.32500
O796        O  0.89397738  0.05039031  0.97152256    -1.30000
H797        H  0.97654664  0.06349883  0.06146306     0.32500
O798        O  0.96314980  0.05028613  0.04475480    -1.31400
O799        O  0.41540825  0.60616798  0.57603746    -0.86800
O800        O  0.43937576  0.41395403  0.56318145    -0.87000
O801        O  0.36607276  0.50812921  0.60049664    -0.88700
O802        O  0.48155616  0.51538899  0.61295916    -0.87400
O803        O  0.52757577  0.52521515  0.57530480    -0.87000
O804        O  0.32711096  0.50639812  0.55408502    -0.88400
O805        O  0.42932963  0.45361986  0.60653293    -0.86900
O806        O  0.41966188  0.56051132  0.61295766    -0.86500
Zr807      Zr  0.42670708  0.50856097  0.57877251     2.84300
O808        O  0.46825290  0.47958410  0.54396835    -1.08400
O809        O  0.38974099  0.54128941  0.54352318    -1.09200
C810        C  0.41652499  0.59259393  0.60674434     1.06300
C811        C  0.43463264  0.42285269  0.59613029     1.06200
C812        C  0.33476555  0.50833296  0.58674719     1.09200
C813        C  0.51452144  0.52195966  0.60645362     1.07000
H814        H  0.38273604  0.45741876  0.55074945     0.32500
O815        O  0.39733693  0.47318543  0.53802596    -1.29400
H816        H  0.47267582  0.56355517  0.56743087     0.32200
O817        O  0.46079362  0.54924436  0.55045180    -1.31100
O818        O  0.44015658  0.42266526  0.44068584    -0.86800
O819        O  0.42271459  0.61821715  0.46377422    -0.88300
O820        O  0.33524998  0.44930833  0.49802066    -0.86900
O821        O  0.53815004  0.46843756  0.51592448    -0.87000
O822        O  0.52495639  0.57871671  0.52117384    -0.86700
O823        O  0.32504701  0.55772371  0.50892046    -0.86500
O824        O  0.37978991  0.52953704  0.40411874    -0.86900
O825        O  0.49708704  0.52855834  0.41516044    -0.86300
O826        O  0.33600347  0.51753731  0.44354765    -0.87400
O827        O  0.53657016  0.52977180  0.46118972    -0.86500
O828        O  0.38089027  0.41066642  0.50174906    -0.86900
O829        O  0.36135291  0.60372852  0.51868112    -0.86700
O830        O  0.47806543  0.61595962  0.52529775    -0.86300
O831        O  0.50183127  0.42244519  0.50526283    -0.86700
O832        O  0.43646326  0.46878649  0.40364033    -0.87000
O833        O  0.43495250  0.58333605  0.41684558    -0.88400
Zr834      Zr  0.43876856  0.44344158  0.50340591     2.83100
Zr835      Zr  0.42318551  0.58340728  0.51664717     2.83500
Zr836      Zr  0.36136401  0.50696948  0.50157914     2.84100
Zr837      Zr  0.50247733  0.52092831  0.51535606     2.83400
Zr838      Zr  0.43618421  0.52273897  0.43786938     2.84200
O839        O  0.46527872  0.55561521  0.48088482    -1.08900
O840        O  0.40365641  0.47954932  0.46696911    -1.08400
C841        C  0.43816103  0.43625706  0.40949206     1.06200
C842        C  0.42834073  0.61308979  0.43079234     1.08900
C843        C  0.34711428  0.41839144  0.49993157     1.06400
C844        C  0.53287480  0.43619440  0.51105230     1.06800
C845        C  0.51154900  0.60879496  0.52446316     1.06400
C846        C  0.33053996  0.58960251  0.51496646     1.05900
C847        C  0.34666845  0.52596932  0.41259595     1.06300
C848        C  0.52888136  0.53086017  0.42812032     1.05800
H849        H  0.37946172  0.56421599  0.46101771     0.32500
O850        O  0.39472737  0.54942962  0.47438540    -1.30000
H851        H  0.48897659  0.47552974  0.45936550     0.32500
O852        O  0.47166998  0.48680780  0.47413622    -1.31400
C853        C  0.55977860  0.75540501  0.61800337    -0.20700
C854        C  0.59339530  0.77010866  0.61364518    -0.07200
C855        C  0.61116432  0.76477741  0.58191905     0.13600
C856        C  0.59864480  0.74020715  0.55853475    -0.20700
C857        C  0.56600137  0.72308337  0.56327249    -0.07200
C858        C  0.54518028  0.73296218  0.59274502     0.13600
C859        C  0.50807146  0.72051876  0.59921557    -0.24100
H860        H  0.54599349  0.75933731  0.64255382     0.14900
H861        H  0.61630663  0.73336216  0.53742354     0.14900
C862        C  0.64621808  0.78155930  0.57435033    -0.24000
H863        H  0.49081410  0.74239876  0.60620589     0.05200
H864        H  0.50813003  0.70236979  0.62137396     0.08400
H865        H  0.49586780  0.70875998  0.57573533     0.08400
H866        H  0.66759774  0.76213619  0.57378005     0.08400
H867        H  0.65307765  0.80120705  0.59422432     0.08400
H868        H  0.64484390  0.79424723  0.54849994     0.05100
C869        C  0.63771950  0.60862778  0.73044903    -0.20700
C870        C  0.66884414  0.61464875  0.71138018    -0.07200
C871        C  0.67413095  0.59595180  0.67988618     0.13600
C872        C  0.64719336  0.57440286  0.66680824    -0.20700
C873        C  0.61526258  0.56996129  0.68486963    -0.07200
C874        C  0.61127808  0.58619925  0.71789357     0.13600
C875        C  0.57868109  0.58028542  0.73971749    -0.24100
H876        H  0.63317115  0.62283816  0.75440789     0.14900
H877        H  0.65155453  0.56029642  0.64274470     0.14900
C878        C  0.70832028  0.59772660  0.65973761    -0.24000
H879        H  0.57856429  0.59646117  0.76363116     0.05200
H880        H  0.57757474  0.55339071  0.74817978     0.08400
H881        H  0.55457428  0.58615687  0.72414601     0.08400
H882        H  0.72865411  0.61361154  0.67299521     0.08400
H883        H  0.70316249  0.60816531  0.63327857     0.08400
H884        H  0.71960575  0.57176234  0.65700540     0.05100
C885        C  0.53810080  0.65833786  0.73907334    -0.20700
C886        C  0.56272223  0.66612469  0.71274215    -0.07200
C887        C  0.55553489  0.65569762  0.67770506     0.13600
C888        C  0.52237244  0.64198259  0.66975921    -0.20700
C889        C  0.49645362  0.63805887  0.69557902    -0.07200
C890        C  0.50531197  0.64378482  0.73095003     0.13600
C891        C  0.48070400  0.63500347  0.76048428    -0.24100
H892        H  0.54403396  0.66429895  0.76620300     0.14900
H893        H  0.51566172  0.63694736  0.64260056     0.14900
C894        C  0.58118042  0.66041233  0.64783659    -0.24000
H895        H  0.49449990  0.61763540  0.77887125     0.05200
H896        H  0.45637652  0.62185298  0.75124967     0.08400
H897        H  0.47296579  0.65849895  0.77477043     0.08400
H898        H  0.60618878  0.64648018  0.65330080     0.08400
H899        H  0.58660909  0.68782716  0.64391670     0.08400
H900        H  0.57054364  0.65029993  0.62271075     0.05100
C901        C  0.63694177  0.34140000  0.57182156    -0.20700
C902        C  0.63560701  0.37697643  0.57423505    -0.07200
C903        C  0.65629979  0.39320164  0.60048585     0.13600
C904        C  0.67669745  0.37321705  0.62406443    -0.20700
C905        C  0.67838972  0.33742945  0.62093089    -0.07200
C906        C  0.65911448  0.32178798  0.59311535     0.13600
C907        C  0.66306188  0.28452565  0.58388428    -0.24100
H908        H  0.62205366  0.32888205  0.55108233     0.14900
H909        H  0.69111761  0.38568752  0.64508799     0.14900
C910        C  0.65788596  0.43127201  0.60388303    -0.24000
H911        H  0.64987069  0.27814135  0.55863518     0.05200
H912        H  0.65078089  0.26812821  0.60389077     0.08400
H913        H  0.69158627  0.27811352  0.58112105     0.08400
H914        H  0.64062683  0.44426427  0.58456998     0.08400
H915        H  0.68555495  0.43996437  0.59986143     0.08400
H916        H  0.64926289  0.43901301  0.63051155     0.05100
C917        C  0.53014451  0.31801391  0.72774749    -0.20700
C918        C  0.53507830  0.28542185  0.71341812    -0.07200
C919        C  0.51807086  0.27757921  0.68103819     0.13600
C920        C  0.49754432  0.30233707  0.66376978    -0.20700
C921        C  0.49235425  0.33471797  0.67823176    -0.07200
C922        C  0.50886971  0.34252725  0.71082905     0.13600
C923        C  0.50418072  0.37692856  0.72782818    -0.24100
H924        H  0.54411872  0.32481866  0.75162572     0.14900
H925        H  0.48385416  0.29563668  0.63969562     0.14900
C926        C  0.52043027  0.24291831  0.66418510    -0.24000
H927        H  0.52035556  0.37948644  0.75206230     0.05200
H928        H  0.47607945  0.38102668  0.73507278     0.08400
H929        H  0.51237303  0.39711389  0.70943198     0.08400
H930        H  0.53390815  0.22401326  0.68103717     0.08400
H931        H  0.53489136  0.24478056  0.63902035     0.08400
H932        H  0.49329588  0.23316253  0.65891958     0.05100
C933        C  0.57595871  0.45140494  0.73516357    -0.20700
C934        C  0.56895441  0.45406818  0.69916948    -0.07200
C935        C  0.57463134  0.42569566  0.67711985     0.13600
C936        C  0.58912076  0.39635063  0.69123418    -0.20700
C937        C  0.59925890  0.39437313  0.72663449    -0.07200
C938        C  0.59165453  0.42213168  0.74922314     0.13600
C939        C  0.60087838  0.42200534  0.78762758    -0.24100
H940        H  0.57138308  0.47332820  0.75188039     0.14900
H941        H  0.59414393  0.37530070  0.67355472     0.14900
C942        C  0.56807571  0.42636388  0.63817210    -0.24000
H943        H  0.59173886  0.44552662  0.80106412     0.05200
H944        H  0.63007264  0.42059500  0.79111940     0.08400
H945        H  0.58794146  0.40010843  0.80052906     0.08400
H946        H  0.58254235  0.44786777  0.62616935     0.08400
H947        H  0.53932586  0.42839324  0.63254453     0.08400
H948        H  0.57730597  0.40259696  0.62531403     0.05100
C949        C  0.21951440  0.72295952  0.58272027    -0.20700
C950        C  0.18633452  0.71418762  0.59690532    -0.07200
C951        C  0.17608012  0.67944719  0.59542926     0.13600
C952        C  0.19905527  0.65521004  0.57985461    -0.20700
C953        C  0.23233437  0.66449813  0.56638373    -0.07200
C954        C  0.24271068  0.69881311  0.56849730     0.13600
C955        C  0.27781885  0.71039198  0.55394050    -0.24100
H956        H  0.22742778  0.74929558  0.58212075     0.14900
H957        H  0.19036026  0.62911908  0.57668146     0.14900
C958        C  0.14077998  0.66773561  0.60899814    -0.24000
H959        H  0.28193259  0.73811775  0.55773015     0.05200
H960        H  0.27915867  0.70494225  0.52544752     0.08400
H961        H  0.29976096  0.69684167  0.56739878     0.08400
H962        H  0.11910807  0.68135811  0.59519537     0.08400
H963        H  0.13904179  0.67265340  0.63755141     0.08400
H964        H  0.13681634  0.64005981  0.60465179     0.05100
C965        C  0.33415085  0.71075644  0.73037227    -0.20700
C966        C  0.33175197  0.74145866  0.71190081    -0.07200
C967        C  0.35480854  0.74665333  0.68317618     0.13600
C968        C  0.37690613  0.72011739  0.67162243    -0.20700
C969        C  0.37704904  0.68853662  0.68829721    -0.07200
C970        C  0.35653784  0.68424739  0.71887061     0.13600
C971        C  0.35694581  0.65103995  0.73826552    -0.24100
H972        H  0.31625163  0.70634049  0.75199109     0.14900
H973        H  0.39414269  0.72410377  0.64938198     0.14900
C974        C  0.35647562  0.77994560  0.66399383    -0.24000
H975        H  0.38404819  0.64581136  0.74831664     0.05200
H976        H  0.34873781  0.63012508  0.72034945     0.08400
H977        H  0.33854938  0.65143215  0.76088112     0.08400
H978        H  0.33917116  0.79968516  0.67580467     0.08400
H979        H  0.34846151  0.77604711  0.63626894     0.08400
H980        H  0.38407142  0.78975006  0.66481657     0.05100
C981        C  0.20598682  0.62598197  0.66505246    -0.20700
C982        C  0.23189369  0.65135896  0.66701668    -0.07200
C983        C  0.26525220  0.64622301  0.65155055     0.13600
C984        C  0.27392323  0.61385925  0.63944106    -0.20700
C985        C  0.24875021  0.58758876  0.63930369    -0.07200
C986        C  0.21344512  0.59468285  0.64944554     0.13600
C987        C  0.18314059  0.57025855  0.64373728    -0.24100
H988        H  0.17948873  0.63101436  0.67471382     0.14900
H989        H  0.30098772  0.60885832  0.63155245     0.14900
C990        C  0.29214500  0.67428538  0.64909973    -0.24000
H991        H  0.16153409  0.58320290  0.62915951     0.05200
H992        H  0.17268921  0.56178317  0.66936443     0.08400
H993        H  0.19092752  0.54772610  0.62797076     0.08400
H994        H  0.29749498  0.68464913  0.67549775     0.08400
H995        H  0.28205191  0.69489465  0.63212922     0.08400
H996        H  0.31731226  0.66533804  0.63757913     0.05100
C997        C  0.26594629  0.29317128  0.61059763    -0.20700
C998        C  0.22889881  0.29328006  0.61695557    -0.07200
C999        C  0.20802779  0.31599722  0.59698860     0.13600
C1000       C  0.22476199  0.33867547  0.57341568    -0.20700
C1001       C  0.26204371  0.33923668  0.56840593    -0.07200
C1002       C  0.28260365  0.31583613  0.58747104     0.13600
C1003       C  0.32212853  0.31333250  0.58219657    -0.24100
H1004       H  0.28254353  0.27491505  0.62399477     0.14900
H1005       H  0.20842730  0.35521826  0.55747529     0.14900
C1006       C  0.16823488  0.31589639  0.59954318    -0.24000
H1007       H  0.33437344  0.29396109  0.59948119     0.05200
H1008       H  0.33483009  0.33806691  0.58829419     0.08400
H1009       H  0.32791463  0.30621671  0.55464608     0.08400
H1010       H  0.15994903  0.32267893  0.62651968     0.08400
H1011       H  0.15797710  0.29024584  0.59269999     0.08400
H1012       H  0.15597541  0.33444715  0.58132283     0.05100
C1013       C  0.22017813  0.45149506  0.65279438    -0.20700
C1014       C  0.24820775  0.46655996  0.67130379    -0.07200
C1015       C  0.26060067  0.45272010  0.70280404     0.13600
C1016       C  0.24511486  0.42282553  0.71469026    -0.20700
C1017       C  0.21914836  0.40611763  0.69463069    -0.07200
C1018       C  0.20570674  0.42087515  0.66395116     0.13600
C1019       C  0.17757488  0.40364047  0.64229551    -0.24100
H1020       H  0.21096002  0.46285938  0.62861045     0.14900
H1021       H  0.25404819  0.41182332  0.73913041     0.14900
C1022       C  0.29048402  0.46896890  0.72311364    -0.24000
H1023       H  0.17045498  0.41869809  0.61878583     0.05200
H1024       H  0.15329242  0.40006335  0.65814326     0.08400
H1025       H  0.18757524  0.37858320  0.63341341     0.08400
H1026       H  0.28284585  0.49516548  0.73102687     0.08400
H1027       H  0.31461283  0.47005708  0.70661023     0.08400
H1028       H  0.29708627  0.45439092  0.74708237     0.05100
C1029       C  0.38328433  0.37104871  0.74286741    -0.20700
C1030       C  0.37414257  0.37750420  0.70733631    -0.07200
C1031       C  0.33759808  0.37694109  0.69872252     0.13600
C1032       C  0.31292190  0.36668299  0.72418306    -0.20700
C1033       C  0.32271076  0.35456729  0.75730427    -0.07200
C1034       C  0.35848887  0.35810962  0.76717571     0.13600
C1035       C  0.37094459  0.34599701  0.80236200    -0.24100
H1036       H  0.41076923  0.37303739  0.75090735     0.14900
H1037       H  0.28585762  0.36467457  0.71677521     0.14900
C1038       C  0.32403924  0.38402468  0.66231232    -0.24000
H1039       H  0.39964345  0.35101117  0.80644197     0.05200
H1040       H  0.36647288  0.31819918  0.80451890     0.08400
H1041       H  0.35595472  0.35931427  0.82329782     0.08400
H1042       H  0.33766523  0.36735095  0.64312251     0.08400
H1043       H  0.32813569  0.41110071  0.65587958     0.08400
H1044       H  0.29510250  0.37930044  0.65980389     0.05100
C1045       C  0.10840785  0.25346413  0.91297707    -0.20700
C1046       C  0.14580276  0.25096143  0.90961736    -0.07200
C1047       C  0.16252225  0.22391843  0.92773235     0.13600
C1048       C  0.14175156  0.19993558  0.94639691    -0.20700
C1049       C  0.10424558  0.20204439  0.94897699    -0.07200
C1050       C  0.08777210  0.22966719  0.93188685     0.13600
C1051       C  0.04827761  0.23459948  0.93416095    -0.24100
H1052       H  0.09482019  0.27412868  0.89993190     0.14900
H1053       H  0.15517545  0.18007262  0.96086738     0.14900
C1054       C  0.20226192  0.22030733  0.92826949    -0.24000
H1055       H  0.03945008  0.25765899  0.91991929     0.05200
H1056       H  0.04020620  0.23737483  0.96193935     0.08400
H1057       H  0.03461569  0.21229121  0.92237796     0.08400
H1058       H  0.21439197  0.24376105  0.93928251     0.08400
H1059       H  0.21245635  0.21584404  0.90155559     0.08400
H1060       H  0.21092473  0.19857772  0.94464540     0.05100
C1061       C  0.62994788  0.67816666  0.45030459    -0.20700
C1062       C  0.59358978  0.67092689  0.44858204    -0.07200
C1063       C  0.57646795  0.66996687  0.41582240     0.13600
C1064       C  0.59494128  0.68028872  0.38604355    -0.20700
C1065       C  0.63056878  0.69044370  0.38806377    -0.07200
C1066       C  0.64890881  0.68720139  0.42023421     0.13600
C1067       C  0.68833119  0.69255183  0.42298298    -0.24100
H1068       H  0.64328476  0.67764668  0.47548674     0.14900
H1069       H  0.58097444  0.68170370  0.36123137     0.14900
C1070       C  0.53846208  0.65938644  0.41216341    -0.24000
H1071       H  0.69863105  0.68526020  0.44916119     0.05200
H1072       H  0.69486464  0.71968635  0.41896135     0.08400
H1073       H  0.70204603  0.67661042  0.40310701     0.08400
H1074       H  0.52123893  0.67552715  0.42886059     0.08400
H1075       H  0.53531030  0.63237442  0.41958280     0.08400
H1076       H  0.52976356  0.66170179  0.38461592     0.05100
C1077       C  0.52638625  0.74742017  0.33922245    -0.20700
C1078       C  0.52965297  0.73844820  0.30375263    -0.07200
C1079       C  0.50816329  0.71159946  0.29061194     0.13600
C1080       C  0.48606918  0.69317407  0.31325755    -0.20700
C1081       C  0.48353984  0.70147912  0.34886520    -0.07200
C1082       C  0.50336607  0.72967419  0.36172310     0.13600
C1083       C  0.50125295  0.74139306  0.39929960    -0.24100
H1084       H  0.54341786  0.76708319  0.35000335     0.14900
H1085       H  0.46967272  0.67291324  0.30270208     0.14900
C1086       C  0.50833282  0.70166905  0.25247217    -0.24000
H1087       H  0.52803965  0.74034259  0.41142226     0.05200
H1088       H  0.49147451  0.76800273  0.40027652     0.08400
H1089       H  0.48331691  0.72558319  0.41532284     0.08400
H1090       H  0.51882558  0.67544189  0.24953313     0.08400
H1091       H  0.52457533  0.71909709  0.23640858     0.08400
H1092       H  0.48084896  0.70251585  0.24199115     0.05100
C1093       C  0.67074001  0.58275948  0.36039512    -0.20700
C1094       C  0.63314241  0.58226205  0.35969892    -0.07200
C1095       C  0.61572439  0.60356861  0.33571643     0.13600
C1096       C  0.63559901  0.62329099  0.31261089    -0.20700
C1097       C  0.67311878  0.62400780  0.31234737    -0.07200
C1098       C  0.69086469  0.60367675  0.33741735     0.13600
C1099       C  0.73064506  0.60249912  0.33880881    -0.24100
H1100       H  0.68440357  0.56550629  0.37786449     0.14900
H1101       H  0.62094560  0.63850264  0.29424363     0.14900
C1102       C  0.57577541  0.60400049  0.33255428    -0.24000
H1103       H  0.74027698  0.58492625  0.35942162     0.05200
H1104       H  0.74120499  0.62822182  0.34473340     0.08400
H1105       H  0.74111816  0.59359084  0.31323148     0.08400
H1106       H  0.56392401  0.61190118  0.35780796     0.08400
H1107       H  0.56590644  0.57831903  0.32529814     0.08400
H1108       H  0.56637973  0.62209292  0.31232078     0.05100
C1109       C  0.67531619  0.35045294  0.40809764    -0.20700
C1110       C  0.66531000  0.31598308  0.40709705    -0.07200
C1111       C  0.63853619  0.30523033  0.43076291     0.13600
C1112       C  0.62000018  0.32925974  0.45114703    -0.20700
C1113       C  0.62915211  0.36372039  0.45141375    -0.07200
C1114       C  0.65865501  0.37400250  0.43098284     0.13600
C1115       C  0.67353635  0.40946735  0.43319365    -0.24100
H1116       H  0.69594327  0.35923360  0.39069750     0.14900
H1117       H  0.59955686  0.32069522  0.46890433     0.14900
C1118       C  0.63102285  0.26805587  0.43683411    -0.24000
H1119       H  0.67316067  0.42123209  0.40686741     0.05200
H1120       H  0.70134915  0.40829729  0.44277416     0.08400
H1121       H  0.65836132  0.42618670  0.45117184     0.08400
H1122       H  0.65618879  0.25463164  0.44294981     0.08400
H1123       H  0.61825295  0.25614171  0.41373375     0.08400
H1124       H  0.61286526  0.26430698  0.45929903     0.05100
C1125       C  0.60979823  0.40181575  0.34517886    -0.20700
C1126       C  0.62210259  0.40171813  0.31065033    -0.07200
C1127       C  0.62134477  0.43260907  0.29155879     0.13600
C1128       C  0.60935247  0.46249266  0.30809901    -0.20700
C1129       C  0.59875065  0.46264945  0.34328802    -0.07200
C1130       C  0.59851211  0.43170161  0.36176527     0.13600
C1131       C  0.58854680  0.42983096  0.39966422    -0.24100
H1132       H  0.61030279  0.37839518  0.35996890     0.14900
H1133       H  0.60919977  0.48619051  0.29376654     0.14900
C1134       C  0.63274870  0.43463780  0.25386756    -0.24000
H1135       H  0.59378279  0.40412358  0.40963271     0.05200
H1136       H  0.55982256  0.43430618  0.40318279     0.08400
H1137       H  0.60429353  0.44820817  0.41546386     0.08400
H1138       H  0.61731144  0.41623400  0.23782333     0.08400
H1139       H  0.66151490  0.42920951  0.25160344     0.08400
H1140       H  0.62823433  0.46036964  0.24287157     0.05100
C1141       C  0.54219430  0.34266911  0.27518004    -0.20700
C1142       C  0.53697973  0.30748484  0.27966480    -0.07200
C1143       C  0.51109137  0.29687979  0.30411254     0.13600
C1144       C  0.49199688  0.32125108  0.32361316    -0.20700
C1145       C  0.49709242  0.35633348  0.31911436    -0.07200
C1146       C  0.52220851  0.36706164  0.29411747     0.13600
C1147       C  0.52726292  0.40429138  0.28689919    -0.24100
H1148       H  0.56233964  0.35117797  0.25711620     0.14900
H1149       H  0.47143531  0.31287195  0.34130786     0.14900
C1150       C  0.50211291  0.25982536  0.30854240    -0.24000
H1151       H  0.50195787  0.41557313  0.27759787     0.05200
H1152       H  0.53577441  0.41754413  0.31123797     0.08400
H1153       H  0.54766218  0.40855879  0.26652202     0.08400
H1154       H  0.52496458  0.24583955  0.31975952     0.08400
H1155       H  0.49489341  0.24857695  0.28276300     0.08400
H1156       H  0.47926872  0.25626599  0.32641064     0.05100
C1157       C  0.22630629  0.64643490  0.38126296    -0.20700
C1158       C  0.22555621  0.68190780  0.37841077    -0.07200
C1159       C  0.23455144  0.70241887  0.40754065     0.13600
C1160       C  0.24432797  0.68684902  0.43877520    -0.20700
C1161       C  0.24419002  0.65139572  0.44197939    -0.07200
C1162       C  0.23444218  0.63081462  0.41321285     0.13600
C1163       C  0.23074005  0.59281031  0.41600068    -0.24100
H1164       H  0.21919980  0.63112140  0.35884428     0.14900
H1165       H  0.25179659  0.70245932  0.46109910     0.14900
C1166       C  0.23430563  0.74073811  0.40584995    -0.24000
H1167       H  0.24967295  0.58027185  0.39799076     0.05200
H1168       H  0.20325905  0.58537834  0.40885166     0.08400
H1169       H  0.23579124  0.58315653  0.44273334     0.08400
H1170       H  0.20686457  0.75007715  0.40196135     0.08400
H1171       H  0.25097476  0.74954826  0.38396799     0.08400
H1172       H  0.24464982  0.75249199  0.43032668     0.05100
C1173       C  0.28803914  0.58841796  0.28535112    -0.20700
C1174       C  0.26600264  0.57483351  0.31129359    -0.07200
C1175       C  0.22875025  0.58172970  0.30827405     0.13600
C1176       C  0.21580343  0.60392152  0.28215545    -0.20700
C1177       C  0.23810163  0.61867018  0.25719489    -0.07200
C1178       C  0.27451230  0.60868212  0.25772800     0.13600
C1179       C  0.29964127  0.61687712  0.22838566    -0.24100
H1180       H  0.31583440  0.58138350  0.28529303     0.14900
H1181       H  0.18787846  0.61049695  0.28203364     0.14900
C1182       C  0.20117536  0.56625437  0.33190243    -0.24000
H1183       H  0.31059542  0.59282181  0.21756529     0.05200
H1184       H  0.32204888  0.63243718  0.23837984     0.08400
H1185       H  0.28668448  0.63016908  0.20631209     0.08400
H1186       H  0.21259759  0.55254507  0.35441222     0.08400
H1187       H  0.18453942  0.54830342  0.31646575     0.08400
H1188       H  0.18355506  0.58631568  0.34267304     0.05100
C1189       C  0.36138045  0.75237122  0.38540980    -0.20700
C1190       C  0.36052819  0.71627453  0.38514178    -0.07200
C1191       C  0.33161836  0.70016113  0.36846457     0.13600
C1192       C  0.30815382  0.71973570  0.34857866    -0.20700
C1193       C  0.31103757  0.75511686  0.34529597    -0.07200
C1194       C  0.33674167  0.77196057  0.36583724     0.13600
C1195       C  0.33958104  0.81003549  0.36534763    -0.24100
H1196       H  0.38319701  0.76511331  0.39853869     0.14900
H1197       H  0.28845285  0.70684977  0.33349986     0.14900
C1198       C  0.32661052  0.66207350  0.36879250    -0.24000
H1199       H  0.36140342  0.81923025  0.38254812     0.05200
H1200       H  0.31437443  0.82138393  0.37477936     0.08400
H1201       H  0.34473811  0.81882566  0.33829572     0.08400
H1202       H  0.32210489  0.65342893  0.39599147     0.08400
H1203       H  0.35012878  0.64908650  0.35756907     0.08400
H1204       H  0.30316860  0.65402428  0.35313060     0.05100
C1205       C  0.09983334  0.94555344  0.21780168    -0.20700
C1206       C  0.10927751  0.95105061  0.18279062    -0.07200
C1207       C  0.14084196  0.93596033  0.17020336     0.13600
C1208       C  0.16074944  0.91395783  0.19188941    -0.20700
C1209       C  0.15055146  0.90745130  0.22656974    -0.07200
C1210       C  0.11999945  0.92421213  0.23976043     0.13600
C1211       C  0.10905392  0.92028659  0.27744191    -0.24100
H1212       H  0.07705201  0.95890843  0.22831965     0.14900
H1213       H  0.18355191  0.90075712  0.18125957     0.14900
C1214       C  0.15371424  0.94375238  0.13393645    -0.24000
H1215       H  0.08628745  0.93701149  0.28410697     0.05200
H1216       H  0.13155701  0.92726345  0.29487804     0.08400
H1217       H  0.10094326  0.89374692  0.28274029     0.08400
H1218       H  0.17942625  0.93129073  0.12848342     0.08400
H1219       H  0.13387534  0.93492371  0.11436368     0.08400
H1220       H  0.15769288  0.97154391  0.13106557     0.05100
C1221       C  0.21908227  0.34036307  0.43912574    -0.20700
C1222       C  0.25609431  0.33588408  0.44263188    -0.07200
C1223       C  0.27114890  0.30589613  0.42875219     0.13600
C1224       C  0.24950020  0.28213857  0.41101591    -0.20700
C1225       C  0.21264026  0.28701525  0.40643665    -0.07200
C1226       C  0.19713345  0.31589672  0.42256017     0.13600
C1227       C  0.15754166  0.32028038  0.42445684    -0.24100
H1228       H  0.20691134  0.36194461  0.45215120     0.14900
H1229       H  0.26170021  0.25943204  0.40027556     0.14900
C1230       C  0.30990993  0.29811881  0.43418624    -0.24000
H1231       H  0.15009141  0.34287183  0.44037931     0.05200
H1232       H  0.14559740  0.29760379  0.43692394     0.08400
H1233       H  0.14608213  0.32374048  0.39808775     0.08400
H1234       H  0.31587141  0.29637625  0.46260905     0.08400
H1235       H  0.32623415  0.31859212  0.42257582     0.08400
H1236       H  0.31761792  0.27363998  0.42173500     0.05100
C1237       C  0.33934129  0.32975376  0.28196344    -0.20700
C1238       C  0.31470763  0.35148011  0.26588308    -0.07200
C1239       C  0.32009707  0.38697791  0.26919726     0.13600
C1240       C  0.34976197  0.39961644  0.28832091    -0.20700
C1241       C  0.37243947  0.37763970  0.30698871    -0.07200
C1242       C  0.36673716  0.34206174  0.30351322     0.13600
C1243       C  0.38814273  0.31597430  0.32336322    -0.24100
H1244       H  0.33483683  0.30252931  0.28077765     0.14900
H1245       H  0.35462532  0.42672393  0.28955174     0.14900
C1246       C  0.29379577  0.41139017  0.25367611    -0.24000
H1247       H  0.36997154  0.29872333  0.33756583     0.05200
H1248       H  0.40595596  0.32731914  0.34333986     0.08400
H1249       H  0.40420643  0.30070229  0.30471418     0.08400
H1250       H  0.26744606  0.40772869  0.26594388     0.08400
H1251       H  0.29153366  0.40676490  0.22506056     0.08400
H1252       H  0.30195420  0.43821247  0.25798744     0.05100
C1253       C  0.24750879  0.39859249  0.35279154    -0.20700
C1254       C  0.21107089  0.40130168  0.34609908    -0.07200
C1255       C  0.19393170  0.43304596  0.34902342     0.13600
C1256       C  0.21435806  0.46178396  0.35629321    -0.20700
C1257       C  0.25135534  0.45953482  0.35925674    -0.07200
C1258       C  0.26812026  0.42735866  0.35872200     0.13600
C1259       C  0.30772625  0.42295274  0.36148211    -0.24100
H1260       H  0.26048119  0.37404743  0.35071648     0.14900
H1261       H  0.20163483  0.48646339  0.35787227     0.14900
C1262       C  0.15445760  0.43697008  0.34423717    -0.24000
H1263       H  0.31592473  0.39639639  0.35568312     0.05200
H1264       H  0.31703393  0.42852235  0.38840725     0.08400
H1265       H  0.32115012  0.43992640  0.34265255     0.08400
H1266       H  0.14559443  0.46332238  0.35009627     0.08400
H1267       H  0.14035350  0.41957767  0.36219492     0.08400
H1268       H  0.14674512  0.43132814  0.31679680     0.05100
C1269       C  0.08602995  0.22796234  0.08353732    -0.20700
C1270       C  0.10288593  0.19753095  0.07406363    -0.07200
C1271       C  0.13938831  0.19378401  0.08315776     0.13600
C1272       C  0.15623456  0.21822450  0.10484638    -0.20700
C1273       C  0.13887101  0.24836782  0.11469318    -0.07200
C1274       C  0.10423140  0.25415971  0.10108805     0.13600
C1275       C  0.08624991  0.28844555  0.10278250    -0.24100
H1276       H  0.05960779  0.23301027  0.07347755     0.14900
H1277       H  0.18300038  0.21359914  0.11409423     0.14900
C1278       C  0.16193671  0.16563852  0.06811585    -0.24000
H1279       H  0.07978966  0.29684499  0.07579934     0.05200
H1280       H  0.10324566  0.30846220  0.11456286     0.08400
H1281       H  0.06116330  0.28666056  0.11771650     0.08400
H1282       H  0.18137922  0.17668344  0.04968003     0.08400
H1283       H  0.14603042  0.14637041  0.05376174     0.08400
H1284       H  0.17697193  0.15257008  0.08908071     0.05100
C1285       C  0.13295120  0.12913434  0.15491391    -0.20700
C1286       C  0.13288621  0.13656860  0.19061977    -0.07200
C1287       C  0.11837964  0.11336047  0.21456319     0.13600
C1288       C  0.10468963  0.08274749  0.20204878    -0.20700
C1289       C  0.10608177  0.07449935  0.16637722    -0.07200
C1290       C  0.12060502  0.09783479  0.14235456     0.13600
C1291       C  0.12471580  0.09025303  0.10386254    -0.24100
H1292       H  0.14357036  0.14756693  0.13710130     0.14900
H1293       H  0.09306933  0.06492021  0.22023792     0.14900
C1294       C  0.11695480  0.12084168  0.25323429    -0.24000
H1295       H  0.15283797  0.09376838  0.09627963     0.05200
H1296       H  0.10782353  0.10791907  0.08855964     0.08400
H1297       H  0.11761885  0.06386020  0.09658956     0.08400
H1298       H  0.10255999  0.14488361  0.25792807     0.08400
H1299       H  0.10304174  0.10053173  0.26782728     0.08400
H1300       H  0.14422806  0.12304430  0.26386587     0.05100
C1301       C  0.87662915  0.19568918  0.20758034    -0.20700
C1302       C  0.87234277  0.16026813  0.20637065    -0.07200
C1303       C  0.84667393  0.14546528  0.22851531     0.13600
C1304       C  0.82396291  0.16660003  0.24875246    -0.20700
C1305       C  0.82784108  0.20227587  0.24900515    -0.07200
C1306       C  0.85565177  0.21652827  0.22908291     0.13600
C1307       C  0.86413051  0.25398550  0.23012586    -0.24100
H1308       H  0.89782865  0.20716262  0.19264100     0.14900
H1309       H  0.80253252  0.15531391  0.26346837     0.14900
C1310       C  0.84391675  0.10745465  0.23121526    -0.24000
H1311       H  0.89233352  0.25751886  0.23774683     0.05200
H1312       H  0.84797003  0.26825336  0.24944805     0.08400
H1313       H  0.85978254  0.26511269  0.20382529     0.08400
H1314       H  0.86951087  0.09683744  0.24059503     0.08400
H1315       H  0.83766535  0.09641955  0.20512577     0.08400
H1316       H  0.82300781  0.09980609  0.24992198     0.05100
C1317       C  0.00169672  0.13756022  0.24665667    -0.20700
C1318       C  0.99907927  0.14032442  0.20968034    -0.07200
C1319       C  0.02304008  0.16231369  0.19287385     0.13600
C1320       C  0.04506932  0.18342210  0.21318229    -0.20700
C1321       C  0.04471971  0.18390239  0.24998216    -0.07200
C1322       C  0.02411343  0.15904588  0.26692829     0.13600
C1323       C  0.02418032  0.15630619  0.30615742    -0.24100
H1324       H  0.98391329  0.12036552  0.25996584     0.14900
H1325       H  0.06247723  0.20038361  0.19994600     0.14900
C1326       C  0.02440078  0.16537065  0.15357191    -0.24000
H1327       H  0.00583832  0.13616853  0.31523753     0.05200
H1328       H  0.01573029  0.18084055  0.31798870     0.08400
H1329       H  0.05124389  0.14984361  0.31552586     0.08400
H1330       H  0.99811256  0.17307338  0.14313784     0.08400
H1331       H  0.03256848  0.14071562  0.14188125     0.08400
H1332       H  0.04399638  0.18466977  0.14509513     0.05100
C1333       C  0.71566269  0.92442993  0.15419591    -0.20700
C1334       C  0.74649744  0.93815589  0.16968271    -0.07200
C1335       C  0.75237190  0.93183342  0.20576846     0.13600
C1336       C  0.72774769  0.91290314  0.22504109    -0.20700
C1337       C  0.69810810  0.89716158  0.20942715    -0.07200
C1338       C  0.69169406  0.90375727  0.17336623     0.13600
C1339       C  0.65975836  0.88945316  0.15480212    -0.24100
H1340       H  0.70987850  0.93055447  0.12716508     0.14900
H1341       H  0.73296497  0.90895809  0.25265140     0.14900
C1342       C  0.78468607  0.94477162  0.22509860    -0.24000
H1343       H  0.65821085  0.89816662  0.12724855     0.05200
H1344       H  0.63522453  0.89779117  0.16832330     0.08400
H1345       H  0.66109200  0.86140685  0.15420250     0.08400
H1346       H  0.77642128  0.96293891  0.24587782     0.08400
H1347       H  0.80395089  0.95759916  0.20780593     0.08400
H1348       H  0.79873372  0.92308161  0.23745377     0.05100
C1349       C  0.76598073  0.05936383  0.21308376    -0.20700
C1350       C  0.77514326  0.05943034  0.17739121    -0.07200
C1351       C  0.77194059  0.09005284  0.15852294     0.13600
C1352       C  0.75782197  0.11881509  0.17509055    -0.20700
C1353       C  0.74578506  0.11806533  0.20981547    -0.07200
C1354       C  0.75079412  0.08797295  0.22940269     0.13600
C1355       C  0.74046745  0.08553419  0.26732686    -0.24100
H1356       H  0.76934519  0.03619058  0.22795288     0.14900
H1357       H  0.75482971  0.14191150  0.16005121     0.14900
C1358       C  0.78112229  0.09269493  0.12037632    -0.24000
H1359       H  0.74933312  0.06118324  0.27908329     0.05200
H1360       H  0.71119428  0.08679300  0.26972386     0.08400
H1361       H  0.75286460  0.10654813  0.28252878     0.08400
H1362       H  0.76742476  0.07259993  0.10494455     0.08400
H1363       H  0.81016060  0.09132821  0.11662267     0.08400
H1364       H  0.77282058  0.11756521  0.10992352     0.05100
C1365       C  0.02698675  0.78959985  0.11433341    -0.20700
C1366       C  0.00734578  0.81319101  0.13439946    -0.07200
C1367       C  0.01316694  0.81413921  0.17094022     0.13600
C1368       C  0.03651252  0.79100295  0.18643375    -0.20700
C1369       C  0.05807148  0.76872160  0.16680902    -0.07200
C1370       C  0.05305624  0.76812922  0.12991355     0.13600
C1371       C  0.07462091  0.74491050  0.10697493    -0.24100
H1372       H  0.02146981  0.78752412  0.08655905     0.14900
H1373       H  0.03885052  0.79166939  0.21471144     0.14900
C1374       C  0.99447060  0.83901768  0.19488733    -0.24000
H1375       H  0.06735478  0.74766289  0.07893361     0.05200
H1376       H  0.06998291  0.71808680  0.11454724     0.08400
H1377       H  0.10321404  0.75103456  0.10982328     0.08400
H1378       H  0.97732139  0.82493374  0.21335682     0.08400
H1379       H  0.97787914  0.85773600  0.18072763     0.08400
H1380       H  0.01444677  0.85370421  0.21010197     0.05100
C1381       C  0.88014887  0.82606513  0.18813657    -0.20700
C1382       C  0.88102269  0.82038218  0.15179118    -0.07200
C1383       C  0.85991976  0.79330428  0.13820086     0.13600
C1384       C  0.83648254  0.77529675  0.16035492    -0.20700
C1385       C  0.83529395  0.78144847  0.19662520    -0.07200
C1386       C  0.85888825  0.80631441  0.21059390     0.13600
C1387       C  0.86358588  0.81150709  0.24947203    -0.24100
H1388       H  0.89811730  0.84464113  0.19948872     0.14900
H1389       H  0.81863629  0.75662767  0.14902113     0.14900
C1390       C  0.86207279  0.78212417  0.10053370    -0.24000
H1391       H  0.89209438  0.80885518  0.25637400     0.05200
H1392       H  0.84902815  0.79245115  0.26511148     0.08400
H1393       H  0.85448381  0.83735527  0.25701777     0.08400
H1394       H  0.88098354  0.79749015  0.08515812     0.08400
H1395       H  0.83553125  0.78423790  0.08806366     0.08400
H1396       H  0.87083348  0.75518461  0.09931843     0.05100
C1397       C  0.07987588  0.93342522  0.78259778    -0.20700
C1398       C  0.11580435  0.92787900  0.77577401    -0.07200
C1399       C  0.14134098  0.95084481  0.78866897     0.13600
C1400       C  0.13029237  0.97755786  0.81005523    -0.20700
C1401       C  0.09410643  0.98360003  0.81694097    -0.07200
C1402       C  0.06845693  0.96232997  0.80087472     0.13600
C1403       C  0.02933287  0.97010390  0.80055540    -0.24100
H1404       H  0.06070963  0.91541168  0.77284549     0.14900
H1405       H  0.15053877  0.99314290  0.82224914     0.14900
C1406       C  0.18042938  0.94660755  0.78133155    -0.24000
H1407       H  0.02319957  0.99608956  0.81005917     0.05200
H1408       H  0.01929325  0.96891935  0.77323810     0.08400
H1409       H  0.01496137  0.95113128  0.81647398     0.08400
H1410       H  0.18536316  0.95067870  0.75307915     0.04200
H1411       H  0.18950237  0.92075068  0.78853742     0.08400
H1412       H  0.19680456  0.96524448  0.79616687     0.05100
C1413       C  0.13577000  0.14946798  0.87262743    -0.20700
C1414       C  0.17069246  0.14485083  0.86097539    -0.07200
C1415       C  0.18684726  0.11264957  0.86309069     0.13600
C1416       C  0.16571239  0.08492098  0.87203575    -0.20700
C1417       C  0.12920909  0.08924018  0.87770658    -0.07200
C1418       C  0.11425353  0.12203667  0.87930844     0.13600
C1419       C  0.07501624  0.12849351  0.88349853    -0.24100
H1420       H  0.12352429  0.17439012  0.87229460     0.14900
H1421       H  0.17692806  0.05952946  0.87179041     0.14900
C1422       C  0.22565553  0.10733850  0.85565445    -0.24000
H1423       H  0.06784500  0.15560791  0.87949983     0.05200
H1424       H  0.06652370  0.12173643  0.91011110     0.08400
H1425       H  0.05996914  0.11311881  0.86416684     0.08400
H1426       H  0.24167485  0.12513981  0.87190172     0.08400
H1427       H  0.23129623  0.11150979  0.82757375     0.08400
H1428       H  0.23414038  0.08103433  0.86199980     0.05100
C1429       C  0.81843027  0.86339805  0.81179637    -0.20700
C1430       C  0.81547802  0.86201071  0.77520585    -0.07200
C1431       C  0.83948475  0.88018570  0.75433917     0.13600
C1432       C  0.86759678  0.89727577  0.77084081    -0.20700
C1433       C  0.87210647  0.89597310  0.80738535    -0.07200
C1434       C  0.84621993  0.88024564  0.82816159     0.13600
C1435       C  0.84884782  0.87867827  0.86738190    -0.24100
H1436       H  0.79975333  0.84960393  0.82789094     0.14900
H1437       H  0.88758823  0.90966004  0.75511294     0.14900
C1438       C  0.83557623  0.88178878  0.71517773    -0.24000
H1439       H  0.82635904  0.86433446  0.87869246     0.05200
H1440       H  0.84782477  0.90464588  0.87870841     0.08400
H1441       H  0.87385226  0.86585922  0.87524071     0.08400
H1442       H  0.80893430  0.89177665  0.70826752     0.08400
H1443       H  0.83895689  0.85610967  0.70353501     0.08400
H1444       H  0.85572482  0.89878058  0.70341627     0.05100
C1445       C  0.00232667  0.82781473  0.81795663    -0.20700
C1446       C  0.99509844  0.86023876  0.80458439    -0.07200
C1447       C  0.00399091  0.86693388  0.76913426     0.13600
C1448       C  0.02284677  0.84265386  0.74957716    -0.20700
C1449       C  0.03179353  0.81091689  0.76354922    -0.07200
C1450       C  0.01977729  0.80283884  0.79771327     0.13600
C1451       C  0.02394296  0.76756792  0.81251547    -0.24100
H1452       H  0.99261990  0.82144408  0.84376167     0.14900
H1453       H  0.03126921  0.84899370  0.72332286     0.14900
C1454       C  0.99216888  0.89867443  0.75032170    -0.24000
H1455       H  0.01011235  0.76501105  0.83797199     0.05200
H1456       H  0.05221978  0.76137934  0.81709090     0.08400
H1457       H  0.01233032  0.74867308  0.79407361     0.08400
H1458       H  0.97216236  0.89171707  0.73014427     0.08400
H1459       H  0.98032820  0.91787880  0.76807796     0.08400
H1460       H  0.01479074  0.91072102  0.73676528     0.05100
C1461       C  0.86498357  0.22922397  0.85238387    -0.20700
C1462       C  0.87602705  0.19902076  0.83606962    -0.07200
C1463       C  0.86436461  0.19267074  0.80125848     0.13600
C1464       C  0.84209100  0.21611795  0.78395323    -0.20700
C1465       C  0.83122947  0.24657165  0.80001679    -0.07200
C1466       C  0.84318304  0.25307181  0.83493058     0.13600
C1467       C  0.83436342  0.28534106  0.85452471    -0.24100
H1468       H  0.87488346  0.23511325  0.87840337     0.14900
H1469       H  0.83226717  0.21008725  0.75795754     0.14900
C1470       C  0.87521706  0.16068576  0.78236526    -0.24000
H1471       H  0.85929520  0.29794554  0.86307174     0.05200
H1472       H  0.81848924  0.27919364  0.87806500     0.08400
H1473       H  0.81954318  0.30392869  0.83847005     0.08400
H1474       H  0.86814255  0.13862654  0.79872587     0.08400
H1475       H  0.90414292  0.16031313  0.77758101     0.08400
H1476       H  0.86195264  0.15822848  0.75649466     0.05100
C1477       C  0.02386446  0.14714123  0.81097642    -0.20700
C1478       C  0.00281724  0.17400592  0.82375806    -0.07200
C1479       C  0.01076248  0.20738544  0.81164453     0.13600
C1480       C  0.03638340  0.21227977  0.78536258    -0.20700
C1481       C  0.05944879  0.18615291  0.77505213    -0.07200
C1482       C  0.05326544  0.15313860  0.78874408     0.13600
C1483       C  0.07817418  0.12426934  0.78046612    -0.24100
H1484       H  0.01784839  0.12146077  0.81906742     0.14900
H1485       H  0.04172811  0.23793335  0.77659967     0.14900
C1486       C  0.99473495  0.23901829  0.82772653    -0.24000
H1487       H  0.06887664  0.09994692  0.79182972     0.05200
H1488       H  0.10486530  0.12964426  0.79150601     0.08400
H1489       H  0.08022404  0.12095945  0.75167871     0.08400
H1490       H  0.97865073  0.23372120  0.85125429     0.08400
H1491       H  0.97813766  0.25230490  0.80802233     0.08400
H1492       H  0.01614441  0.25644903  0.83650596     0.05100
C1493       C  0.73085156  0.91481663  0.77847309    -0.20700
C1494       C  0.70074754  0.90280913  0.79600256    -0.07200
C1495       C  0.69498856  0.91427091  0.83093421     0.13600
C1496       C  0.71974910  0.93619247  0.84747957    -0.20700
C1497       C  0.75068314  0.94682903  0.83044776    -0.07200
C1498       C  0.75558073  0.93660310  0.79505539     0.13600
C1499       C  0.78707931  0.94889626  0.77453712    -0.24100
H1500       H  0.73593868  0.90593015  0.75206244     0.14900
H1501       H  0.71451841  0.94574556  0.87361702     0.14900
C1502       C  0.66223859  0.90405821  0.85074212    -0.24000
H1503       H  0.78839521  0.93676304  0.74830907     0.05200
H1504       H  0.81185343  0.94301154  0.78900161     0.08400
H1505       H  0.78548587  0.97670856  0.77039940     0.08400
H1506       H  0.66263844  0.87645188  0.85628965     0.08400
H1507       H  0.63822764  0.91035163  0.83515768     0.08400
H1508       H  0.66032593  0.91757428  0.87626918     0.05100
C1509       C  0.74181156  0.07796311  0.82264547    -0.20700
C1510       C  0.77724716  0.06742852  0.82184468    -0.07200
C1511       C  0.80225106  0.08501560  0.80139434     0.13600
C1512       C  0.79123017  0.11402861  0.78335691    -0.20700
C1513       C  0.75592742  0.12462202  0.78482708    -0.07200
C1514       C  0.73063880  0.10590557  0.80358555     0.13600
C1515       C  0.69188799  0.11533956  0.80352569    -0.24100
H1516       H  0.72265424  0.06366451  0.83765790     0.14900
H1517       H  0.80983409  0.12830867  0.76786667     0.14900
C1518       C  0.83988770  0.07265421  0.79767823    -0.24000
H1519       H  0.67595800  0.09780202  0.81977962     0.05200
H1520       H  0.68115769  0.11385225  0.77651201     0.08400
H1521       H  0.68854708  0.14157844  0.81360645     0.08400
H1522       H  0.84018143  0.04519486  0.79084939     0.08400
H1523       H  0.85460206  0.07681840  0.82253536     0.08400
H1524       H  0.85399403  0.08614708  0.77647422     0.05100
C1525       C  0.16959718  0.88945288  0.06065527    -0.20700
C1526       C  0.13454450  0.88411552  0.04933244    -0.07200
C1527       C  0.11365534  0.85900516  0.06555680     0.13600
C1528       C  0.12758194  0.84123823  0.09387574    -0.20700
C1529       C  0.16201409  0.84732571  0.10621721    -0.07200
C1530       C  0.18380449  0.87109937  0.08888803     0.13600
C1531       C  0.22145179  0.87782166  0.10036831    -0.24100
H1532       H  0.18587150  0.90787945  0.04718629     0.14900
H1533       H  0.11140256  0.82213941  0.10646864     0.14900
C1534       C  0.07713017  0.84969690  0.05239592    -0.24000
H1535       H  0.23368985  0.89864501  0.08507622     0.05200
H1536       H  0.23777041  0.85464231  0.09647112     0.08400
H1537       H  0.22215172  0.88525277  0.12842394     0.08400
H1538       H  0.07811762  0.84329950  0.02407683     0.08400
H1539       H  0.05841513  0.87099684  0.05685447     0.08400
H1540       H  0.06641462  0.82727939  0.06617382     0.05100
C1541       C  0.17171607  0.88822485  0.86739480    -0.20700
C1542       C  0.17939197  0.85323732  0.86904046    -0.07200
C1543       C  0.16809965  0.83480005  0.89853667     0.13600
C1544       C  0.14723041  0.85072978  0.92387830    -0.20700
C1545       C  0.13892714  0.88551785  0.92227062    -0.07200
C1546       C  0.15220061  0.90475121  0.89408972     0.13600
C1547       C  0.14635486  0.94252394  0.89246313    -0.24100
H1548       H  0.17948905  0.90229173  0.84449911     0.14900
H1549       H  0.13805956  0.83586029  0.94587009     0.14900
C1550       C  0.17711714  0.79778658  0.90363470    -0.24000
H1551       H  0.16108634  0.95390084  0.87041844     0.05200
H1552       H  0.15607475  0.95473511  0.91694108     0.08400
H1553       H  0.11771561  0.94812175  0.88903437     0.08400
H1554       H  0.19539464  0.78783364  0.88332929     0.08400
H1555       H  0.15245359  0.78240828  0.90316799     0.08400
H1556       H  0.19046117  0.79452316  0.92935710     0.05100
C1557       C  0.69169392  0.17379937  0.11434824    -0.20700
C1558       C  0.69956297  0.20876991  0.11418575    -0.07200
C1559       C  0.72540401  0.22046512  0.09011838     0.13600
C1560       C  0.74300988  0.19718880  0.06799508    -0.20700
C1561       C  0.73548455  0.16229329  0.06835979    -0.07200
C1562       C  0.70880904  0.15062158  0.09151271     0.13600
C1563       C  0.69772052  0.11389537  0.09279738    -0.24100
H1564       H  0.67255153  0.16427509  0.13295518     0.14900
H1565       H  0.76190211  0.20653080  0.04903643     0.14900
C1566       C  0.73351515  0.25778051  0.08626608    -0.24000
H1567       H  0.70195162  0.10395250  0.11963059     0.05200
H1568       H  0.71286836  0.09766975  0.07433120     0.08400
H1569       H  0.66913137  0.11174752  0.08616724     0.08400
H1570       H  0.74702979  0.26773920  0.10997744     0.08400
H1571       H  0.70855161  0.27210667  0.08176388     0.08400
H1572       H  0.75129245  0.26259170  0.06372788     0.05100
C1573       C  0.68200834  0.14226214  0.89256627    -0.20700
C1574       C  0.67739148  0.17786386  0.89173475    -0.07200
C1575       C  0.69214082  0.19710731  0.91959029     0.13600
C1576       C  0.71376890  0.18141287  0.94469857    -0.20700
C1577       C  0.72053393  0.14618904  0.94444915    -0.07200
C1578       C  0.70338298  0.12621810  0.91845954     0.13600
C1579       C  0.70784439  0.08824124  0.91771655    -0.24100
H1580       H  0.67042235  0.12710238  0.87189601     0.14900
H1581       H  0.72557871  0.19713048  0.96504235     0.14900
C1582       C  0.68683323  0.23501250  0.92254314    -0.24000
H1583       H  0.69188273  0.07636209  0.89643984     0.05200
H1584       H  0.69912659  0.07734549  0.94298519     0.08400
H1585       H  0.73610252  0.08171348  0.91325743     0.08400
H1586       H  0.66856269  0.24497765  0.90222595     0.08400
H1587       H  0.71273299  0.24815839  0.92024011     0.08400
H1588       H  0.67519717  0.24123860  0.94844762     0.05100
C1589       C  0.76875301  0.83945033  0.11281549    -0.20700
C1590       C  0.73552011  0.82393693  0.10934499    -0.07200
C1591       C  0.71928987  0.82193400  0.07591558     0.13600
C1592       C  0.73818669  0.83322784  0.04669148    -0.20700
C1593       C  0.77269245  0.84636311  0.05002997    -0.07200
C1594       C  0.78768168  0.85038743  0.08373577     0.13600
C1595       C  0.82452997  0.86383228  0.08962798    -0.24100
H1596       H  0.78110287  0.84130391  0.13842983     0.14900
H1597       H  0.72637309  0.83088944  0.02089723     0.14900
C1598       C  0.68222238  0.80840857  0.07065574    -0.24000
H1599       H  0.83234487  0.86169812  0.11751448     0.05200
H1600       H  0.82603545  0.89114699  0.08325747     0.08400
H1601       H  0.84385238  0.84931176  0.07362325     0.08400
H1602       H  0.66351997  0.82250212  0.08780305     0.08400
H1603       H  0.68121683  0.78087143  0.07654962     0.08400
H1604       H  0.67307539  0.81147867  0.04318246     0.05100
C1605       C  0.82859098  0.79667077  0.90687342    -0.20700
C1606       C  0.80236788  0.80902751  0.92985097    -0.07200
C1607       C  0.76681341  0.79756882  0.92431368     0.13600
C1608       C  0.75943515  0.77256548  0.89884046    -0.20700
C1609       C  0.78462227  0.76303809  0.87386967    -0.07200
C1610       C  0.81976617  0.77516547  0.87818391     0.13600
C1611       C  0.84767767  0.76607391  0.85168095    -0.24100
H1612       H  0.85574944  0.80494812  0.91042929     0.14900
H1613       H  0.73216471  0.76455728  0.89500424     0.14900
C1614       C  0.73492921  0.81366104  0.94171388    -0.24000
H1615       H  0.87393389  0.77678496  0.85895181     0.05200
H1616       H  0.84024747  0.77621694  0.82560838     0.08400
H1617       H  0.85021460  0.73799653  0.84985432     0.08400
H1618       H  0.74110950  0.83751603  0.95590547     0.08400
H1619       H  0.72242629  0.79520853  0.95971270     0.08400
H1620       H  0.71512430  0.82097285  0.92157004     0.05100
loop_ 
_geom_bond_atom_site_label_1 
_geom_bond_atom_site_label_2 
_geom_bond_distance 
_geom_bond_site_symmetry_2 
_ccdc_geom_bond_type 
C1            C2   1.398       .  A
C1            C6   1.399   1_554  A
C1         C1593   1.481       .  S
C2            C3   1.399   1_554  A
C2            H7   1.081       .  S
C3            C4   1.424       .  A
C3          C756   1.496       .  S
C4            C5   1.427       .  A
C4            H8   1.075       .  S
C5            C6   1.402       .  A
C5         C1606   1.516       .  S
C6            H9   1.084       .  S
C10          C11   1.421       .  A
C10          C15   1.392       .  A
C10        C1561   1.500       .  S
C11          C12   1.421       .  A
C11          H16   1.080       .  S
C12          C13   1.433   1_554  A
C12         C788   1.526       .  S
C13          C14   1.429       .  A
C13          H17   1.083       .  S
C14          C15   1.398   1_556  A
C14        C1577   1.512       .  S
C15          H18   1.086       .  S
C19          C20   1.390   1_554  A
C19          C24   1.396       .  A
C19        C1526   1.473       .  S
C20          C21   1.400       .  A
C20          H25   1.085       .  S
C21          C22   1.420       .  A
C21        C1545   1.492       .  S
C22          C23   1.419       .  A
C22          H26   1.083       .  S
C23          C24   1.399   1_556  A
C23         C757   1.478       .  S
C24          H27   1.085       .  S
C28          C29   1.392       .  A
C28          C33   1.388       .  A
C28        C1510   1.460       .  S
C29          C30   1.398       .  A
C29          H34   1.084       .  S
C30          C31   1.434   1_545  A
C30         C792   1.495       .  S
C31          C32   1.431       .  A
C31          H35   1.082       .  S
C32          C33   1.388   1_565  A
C32        C1497   1.502       .  S
C33          H36   1.086       .  S
C37          C38   1.424       .  A
C37          C42   1.392       .  A
C37        C1462   1.504       .  S
C38          C39   1.427       .  A
C38          H43   1.083       .  S
C39          C40   1.435       .  A
C39         C793   1.527       .  S
C40          C41   1.428       .  A
C40          H44   1.083       .  S
C41          C42   1.395       .  A
C41        C1478   1.519   1_655  S
C42          H45   1.084       .  S
C46          C47   1.393       .  A
C46          C51   1.387       .  A
C46        C1433   1.466       .  S
C47          C48   1.403       .  A
C47          H52   1.084       .  S
C48          C49   1.424       .  A
C48         C758   1.485       .  S
C49          C50   1.424       .  A
C49          H53   1.083   1_655  S
C50          C51   1.389       .  A
C50        C1446   1.488       .  S
C51          H54   1.086       .  S
C55          C56   1.392       .  A
C55          C60   1.383       .  A
C55        C1417   1.454       .  S
C56          C57   1.401       .  A
C56          H61   1.084       .  S
C57          C58   1.410       .  A
C57        C1401   1.486   1_545  S
C58          C59   1.399       .  A
C58          H62   1.082   1_545  S
C59          C60   1.386       .  A
C59         C789   1.448       .  S
C60          H63   1.083       .  S
C64          C65   1.393       .  A
C64          C69   1.431       .  A
C64        C1382   1.511       .  S
C65          C66   1.397       .  A
C65          H70   1.086       .  S
C66          C67   1.420       .  A
C66        C1366   1.499   1_655  S
C67          C68   1.425       .  A
C67          H71   1.083       .  S
C68          C69   1.430       .  A
C68         C759   1.527       .  S
C69          H72   1.079       .  S
C73          C74   1.401       .  A
C73          C78   1.396   1_545  A
C73        C1350   1.490       .  S
C74          C75   1.403   1_545  A
C74          H79   1.080       .  S
C75          C76   1.431       .  A
C75         C791   1.501       .  S
C76          C77   1.430       .  A
C76          H80   1.081       .  S
C77          C78   1.397       .  A
C77        C1334   1.506       .  S
C78          H81   1.085   1_565  S
C82          C83   1.393       .  A
C82          C87   1.423       .  A
C82        C1302   1.499       .  S
C83          C84   1.395       .  A
C83          H88   1.086       .  S
C84          C85   1.425       .  A
C84        C1318   1.510       .  S
C85          C86   1.428       .  A
C85          H89   1.082       .  S
C86          C87   1.426       .  A
C86         C794   1.523       .  S
C87          H90   1.083       .  S
Zr91         O92   2.443       .  S
Zr91         O93   2.392       .  S
Zr91         O94   2.362       .  S
Zr91         O97   2.379       .  S
Zr91         O99   2.377       .  S
Zr91        O100   2.391       .  S
Zr91        O101   2.392       .  S
Zr91        O102   2.381       .  S
O92         H148   0.991       .  S
O92         H156   0.990       .  S
O93         C113   1.274       .  A
O94         C115   1.269       .  A
O95        Zr105   2.508       .  S
O95         C114   1.288       .  A
O96        Zr104   2.530       .  S
O96         C115   1.302       .  A
O97         C114   1.263       .  A
O98        Zr106   2.415       .  S
O98         C113   1.279       .  A
O99        Zr104   2.396       .  S
O99        Zr106   2.379       .  S
O100       Zr105   2.402       .  S
O100       Zr106   2.359       .  S
O100        H135   0.960       .  S
O101       Zr104   2.404       .  S
O101       Zr121   2.391       .  S
O101        H138   0.969       .  S
O102       Zr105   2.417       .  S
O102       Zr121   2.385       .  S
Zr103       O128   2.448       .  S
Zr103       O122   2.420       .  S
Zr103       O130   2.408       .  S
Zr103       O118   2.375       .  S
Zr103       O109   2.395       .  S
Zr103       O110   2.409       .  S
Zr103       O111   2.398       .  S
Zr103       O112   2.391       .  S
Zr104       O123   2.441       .  S
Zr104       O116   2.434       .  S
Zr104       O117   2.523       .  S
Zr104       O110   2.415       .  S
Zr104       O111   2.400       .  S
Zr105       O107   2.433       .  S
Zr105       O129   2.434       .  S
Zr105       O131   2.499       .  S
Zr105       O109   2.422       .  S
Zr105       O112   2.404       .  S
Zr106       O132   2.438       .  S
Zr106       O133   2.435       .  S
Zr106       O108   2.437       .  S
Zr106       O109   2.400       .  S
Zr106       O110   2.376       .  S
O107        H144   0.990       .  S
O108        H139   0.990       .  S
O108        H153   0.989       .  S
O110        H136   0.962       .  S
O111       Zr121   2.370       .  S
O112       Zr121   2.376       .  S
O112        H137   0.970       .  S
C113       C1254   1.458       .  S
C114       C1225   1.509       .  S
C115       C1238   1.491       .  S
O116        H152   0.990       .  S
O117        C119   1.294       .  A
O118        C119   1.260       .  A
C119       C1273   1.498       .  S
O120       Zr121   2.437       .  S
O120        H149   0.990       .  S
Zr121       O124   2.435       .  S
Zr121       O125   2.435       .  S
Zr121       O126   2.414       .  S
O122        C127   1.280       .  A
O123        H140   0.990       .  S
O123        H155   0.990       .  S
O124        H141   0.991       .  S
O125        H145   0.990       .  S
O125        H154   0.989       .  S
O126        C127   1.281       .  A
C127       C1286   1.455       .  S
O128        H147   0.989       .  S
O128        H151   0.989       .  S
O129        H143   0.991       .  S
O129        H150   0.990       .  S
O130        C134   1.273       .  A
O131        C134   1.290       .  A
O132        H142   0.990       .  S
O133        H146   0.990       .  S
C134       C1321   1.510       .  S
C157        C158   1.393       .  A
C157        C162   1.393       .  A
C157       C1289   1.466       .  S
C158        C159   1.397       .  A
C158        H163   1.085       .  S
C159        C160   1.426   1_545  A
C159        C790   1.486       .  S
C160        C161   1.425       .  A
C160        H164   1.083       .  S
C161        C162   1.394   1_565  A
C161       C1206   1.495       .  S
C162        H165   1.085       .  S
Zr166       O167   2.449       .  S
Zr166       O168   2.437       .  S
Zr166       O169   2.408       .  S
Zr166       O172   2.391       .  S
Zr166       O174   2.387       .  S
Zr166       O175   2.397       .  S
Zr166       O176   2.425       .  S
Zr166       O177   2.406       .  S
O167        H223   0.990       .  S
O167        H231   0.988       .  S
O168        C188   1.280       .  A
O169        C190   1.269       .  A
O170       Zr180   2.519       .  S
O170        C189   1.296       .  A
O171       Zr179   2.508       .  S
O171        C190   1.291       .  A
O172        C189   1.269       .  A
O173       Zr181   2.396       .  S
O173        C188   1.275       .  A
O174       Zr179   2.409       .  S
O174       Zr181   2.372       .  S
O175       Zr180   2.411       .  S
O175       Zr181   2.364       .  S
O175        H210   0.965       .  S
O176       Zr179   2.422       .  S
O176       Zr196   2.396       .  S
O176        H213   0.964       .  S
O177       Zr180   2.415       .  S
O177       Zr196   2.397       .  S
Zr178       O203   2.444       .  S
Zr178       O197   2.420       .  S
Zr178       O205   2.388       .  S
Zr178       O193   2.382       .  S
Zr178       O184   2.402       .  S
Zr178       O185   2.416       .  S
Zr178       O186   2.379       .  S
Zr178       O187   2.396       .  S
Zr179       O198   2.433       .  S
Zr179       O191   2.435       .  S
Zr179       O192   2.519       .  S
Zr179       O185   2.406       .  S
Zr179       O186   2.396       .  S
Zr180       O182   2.434       .  S
Zr180       O204   2.434       .  S
Zr180       O206   2.517       .  S
Zr180       O184   2.421       .  S
Zr180       O187   2.419       .  S
Zr181       O207   2.436       .  S
Zr181       O208   2.435       .  S
Zr181       O183   2.436       .  S
Zr181       O184   2.387       .  S
Zr181       O185   2.381       .  S
O182        H219   0.990       .  S
O183        H214   0.990       .  S
O183        H228   0.990       .  S
O185        H211   0.969       .  S
O186       Zr196   2.374       .  S
O187       Zr196   2.372       .  S
O187        H212   0.965       .  S
C188       C1158   1.464       .  S
C189       C1177   1.518       .  S
C190       C1193   1.500       .  S
O191        H227   0.990       .  S
O192        C194   1.295       .  A
O193        C194   1.262       .  A
C194       C1209   1.493       .  S
O195       Zr196   2.436       .  S
O195        H224   0.990       .  S
Zr196       O199   2.434       .  S
Zr196       O200   2.440       .  S
Zr196       O201   2.417       .  S
O197        C202   1.282       .  A
O198        H215   0.990       .  S
O198        H230   0.990       .  S
O199        H216   0.989       .  S
O200        H220   0.989       .  S
O200        H229   0.991       .  S
O201        C202   1.279       .  A
C202       C1529   1.472       .  S
O203        H222   0.991       .  S
O203        H226   0.990       .  S
O204        H218   0.990       .  S
O204        H225   0.990       .  S
O205        C209   1.268       .  A
O206        C209   1.289       .  A
O207        H217   0.990       .  S
O208        H221   0.990       .  S
C209       C1369   1.516       .  S
Zr232       O233   2.442       .  S
Zr232       O234   2.413       .  S
Zr232       O235   2.376       .  S
Zr232       O238   2.396       .  S
Zr232       O240   2.379       .  S
Zr232       O241   2.390       .  S
Zr232       O242   2.415       .  S
Zr232       O243   2.391       .  S
O233        H289   0.990       .  S
O233        H297   0.991       .  S
O234        C254   1.281       .  A
O235        C256   1.266       .  A
O236       Zr246   2.504       .  S
O236        C255   1.292       .  A
O237       Zr245   2.517       .  S
O237        C256   1.294       .  A
O238        C255   1.269       .  A
O239       Zr247   2.441       .  S
O239        C254   1.283       .  A
O240       Zr245   2.399       .  S
O240       Zr247   2.364       .  S
O241       Zr246   2.419       .  S
O241       Zr247   2.369       .  S
O241        H276   0.965       .  S
O242       Zr245   2.418       .  S
O242       Zr262   2.388       .  S
O242        H279   0.967       .  S
O243       Zr246   2.409       .  S
O243       Zr262   2.390       .  S
Zr244       O269   2.443       .  S
Zr244       O263   2.447       .  S
Zr244       O271   2.383       .  S
Zr244       O259   2.386       .  S
Zr244       O250   2.414       .  S
Zr244       O251   2.424       .  S
Zr244       O252   2.378       .  S
Zr244       O253   2.388       .  S
Zr245       O264   2.434       .  S
Zr245       O257   2.435       .  S
Zr245       O258   2.531       .  S
Zr245       O251   2.410       .  S
Zr245       O252   2.401       .  S
Zr246       O248   2.434       .  S
Zr246       O270   2.437       .  S
Zr246       O272   2.510       .  S
Zr246       O250   2.414       .  S
Zr246       O253   2.414       .  S
Zr247       O273   2.438       .  S
Zr247       O274   2.436       .  S
Zr247       O249   2.436       .  S
Zr247       O250   2.405       .  S
Zr247       O251   2.402       .  S
O248        H285   0.990       .  S
O249        H280   0.990       .  S
O249        H294   0.990       .  S
O251        H277   0.966       .  S
O252       Zr262   2.380       .  S
O253       Zr262   2.364       .  S
O253        H278   0.969       .  S
C254       C1353   1.490       .  S
C255       C1558   1.504       .  S
C256       C1305   1.494       .  S
O257        H293   0.989       .  S
O258        C260   1.298       .  A
O259        C260   1.266       .  A
C260       C1110   1.508       .  S
O261       Zr262   2.437       .  S
O261        H290   0.990       .  S
Zr262       O265   2.435       .  S
Zr262       O266   2.440       .  S
Zr262       O267   2.411       .  S
O263        C268   1.287       .  A
O264        H281   0.990       .  S
O264        H296   0.990       .  S
O265        H282   0.990       .  S
O266        H286   0.990       .  S
O266        H295   0.990       .  S
O267        C268   1.278       .  A
C268       C1126   1.489       .  S
O269        H288   0.990       .  S
O269        H292   0.990       .  S
O270        H284   0.990       .  S
O270        H291   0.990       .  S
O271        C275   1.266       .  A
O272        C275   1.291       .  A
O273        H283   0.989       .  S
O274        H287   0.990       .  S
C275       C1142   1.502       .  S
Zr298       O299   2.448       .  S
Zr298       O300   2.420       .  S
Zr298       O301   2.388       .  S
Zr298       O304   2.374       .  S
Zr298       O306   2.388       .  S
Zr298       O307   2.386       .  S
Zr298       O308   2.412       .  S
Zr298       O309   2.391       .  S
O299        H355   0.990       .  S
O299        H363   0.990       .  S
O300        C320   1.281       .  A
O301        C322   1.261       .  A
O302       Zr312   2.527       .  S
O302        C321   1.303       .  A
O303       Zr311   2.552       .  S
O303        C322   1.297       .  A
O304        C321   1.274       .  A
O305       Zr313   2.433       .  S
O305        C320   1.284       .  A
O306       Zr311   2.395       .  S
O306       Zr313   2.368       .  S
O307       Zr312   2.390       .  S
O307       Zr313   2.365       .  S
O307        H342   0.965       .  S
O308       Zr311   2.420       .  S
O308       Zr328   2.381       .  S
O308        H345   0.967       .  S
O309       Zr312   2.414       .  S
O309       Zr328   2.396       .  S
Zr310       O335   2.438       .  S
Zr310       O329   2.417       .  S
Zr310       O337   2.385       .  S
Zr310       O325   2.384       .  S
Zr310       O316   2.398       .  S
Zr310       O317   2.406       .  S
Zr310       O319   2.388       .  S
Zr310       O318   2.271       .  S
Zr311       O330   2.435       .  S
Zr311       O323   2.434       .  S
Zr311       O324   2.540       .  S
Zr311       O317   2.403       .  S
Zr311       O318   2.305       .  S
Zr312       O314   2.434       .  S
Zr312       O336   2.437       .  S
Zr312       O338   2.510       .  S
Zr312       O316   2.423       .  S
Zr312       O319   2.418       .  S
Zr313       O339   2.437       .  S
Zr313       O340   2.434       .  S
Zr313       O315   2.433       .  S
Zr313       O316   2.391       .  S
Zr313       O317   2.392       .  S
O314        H351   0.990       .  S
O315        H346   0.989       .  S
O315        H360   0.990       .  S
O317        H343   0.966       .  S
O318       Zr328   2.286       .  S
O319       Zr328   2.355       .  S
O319        H344   0.958       .  S
C320       C1065   1.481       .  S
C321       C1078   1.489       .  S
C322       C1097   1.524       .  S
O323        H359   0.990       .  S
O324        C326   1.302       .  A
O325        C326   1.269       .  A
C326       C1385   1.509       .  S
O327       Zr328   2.431       .  S
O327        H356   0.988       .  S
Zr328       O331   2.433       .  S
Zr328       O332   2.436       .  S
Zr328       O333   2.407       .  S
O329        C334   1.280       .  A
O330        H347   0.990       .  S
O330        H362   0.989       .  S
O331        H348   0.989       .  S
O332        H352   0.990       .  S
O332        H361   0.990       .  S
O333        C334   1.276       .  A
C334       C1590   1.474       .  S
O335        H354   0.989       .  S
O335        H358   0.989       .  S
O336        H350   0.990       .  S
O336        H357   0.990       .  S
O337        C341   1.269       .  A
O338        C341   1.288       .  A
O339        H349   0.990       .  S
O340        H353   0.991       .  S
C341       C1337   1.514       .  S
C364        C365   1.384       .  A
C364        C369   1.424       .  A
C364       C1270   1.493       .  S
C365        C366   1.384   1_554  A
C365        H370   1.088       .  S
C366        C367   1.443       .  A
C366       C1049   1.526       .  S
C367        C368   1.448   1_556  A
C367        H371   1.078       .  S
C368        C369   1.430       .  A
C368        C787   1.552       .  S
C369        H372   1.083       .  S
Zr373       O374   2.427       .  S
Zr373       O375   2.365       .  S
Zr373       O376   2.393       .  S
Zr373       O379   2.362       .  S
Zr373       O382   2.403       .  S
Zr373       O383   2.400       .  S
Zr373       O384   2.386       .  S
Zr373       O381   2.257       .  S
O374        H430   0.988       .  S
O374        H438   0.988       .  S
O375        C395   1.268       .  A
O376        C397   1.266       .  A
O377       Zr387   2.560       .  S
O377        C396   1.299       .  A
O378       Zr386   2.539       .  S
O378        C397   1.300       .  A
O379        C396   1.262       .  A
O380       Zr388   2.431       .  S
O380        C395   1.280       .  A
O381       Zr386   2.295       .  S
O381       Zr388   2.276       .  S
O382       Zr387   2.376       .  S
O382       Zr388   2.360       .  S
O382        H417   0.953       .  S
O383       Zr386   2.417       .  S
O383       Zr403   2.393       .  S
O383        H420   0.965       .  S
O384       Zr387   2.408       .  S
O384       Zr403   2.389       .  S
Zr385       O410   2.448       .  S
Zr385       O404   2.428       .  S
Zr385       O412   2.404       .  S
Zr385       O400   2.371       .  S
Zr385       O391   2.401       .  S
Zr385       O392   2.424       .  S
Zr385       O393   2.393       .  S
Zr385       O394   2.396       .  S
Zr386       O405   2.434       .  S
Zr386       O398   2.439       .  S
Zr386       O399   2.549       .  S
Zr386       O392   2.421       .  S
Zr386       O393   2.394       .  S
Zr387       O389   2.435       .  S
Zr387       O411   2.434       .  S
Zr387       O413   2.520       .  S
Zr387       O391   2.424       .  S
Zr387       O394   2.414       .  S
Zr388       O414   2.434       .  S
Zr388       O415   2.432       .  S
Zr388       O390   2.437       .  S
Zr388       O391   2.402       .  S
Zr388       O392   2.383       .  S
O389        H426   0.990       .  S
O390        H421   0.990       .  S
O390        H435   0.990       .  S
O392        H418   0.965       .  S
O393       Zr403   2.375       .  S
O394       Zr403   2.387       .  S
O394        H419   0.964       .  S
C395       C1414   1.455       .  S
C396       C1046   1.531       .  S
C397       C1481   1.501       .  S
O398        H434   0.990       .  S
O399        C401   1.301       .  A
O400        C401   1.262       .  A
C401        C998   1.521       .  S
O402       Zr403   2.436       .  S
O402        H431   0.990       .  S
Zr403       O406   2.439       .  S
Zr403       O407   2.442       .  S
Zr403       O408   2.388       .  S
O404        C409   1.280       .  A
O405        H422   0.990       .  S
O405        H437   0.990       .  S
O406        H423   0.990       .  S
O407        H427   0.991       .  S
O407        H436   0.991       .  S
O408        C409   1.271       .  A
C409       C1017   1.450       .  S
O410        H429   0.988       .  S
O410        H433   0.989       .  S
O411        H425   0.990       .  S
O411        H432   0.990       .  S
O412        C416   1.268       .  A
O413        C416   1.292       .  A
O414        H424   0.991       .  S
O415        H428   0.990       .  S
C416       C1033   1.507       .  S
Zr439       O440   2.444       .  S
Zr439       O441   2.414       .  S
Zr439       O442   2.375       .  S
Zr439       O445   2.391       .  S
Zr439       O447   2.375       .  S
Zr439       O448   2.391       .  S
Zr439       O449   2.418       .  S
Zr439       O450   2.399       .  S
O440        H496   0.991       .  S
O440        H504   0.989       .  S
O441        C461   1.278       .  A
O442        C463   1.269       .  A
O443       Zr453   2.476       .  S
O443        C462   1.286       .  A
O444       Zr452   2.492       .  S
O444        C463   1.292       .  A
O445        C462   1.266       .  A
O446       Zr454   2.402       .  S
O446        C461   1.278       .  A
O447       Zr452   2.394       .  S
O447       Zr454   2.372       .  S
O448       Zr453   2.413       .  S
O448       Zr454   2.383       .  S
O448        H483   0.966       .  S
O449       Zr452   2.400       .  S
O449       Zr469   2.384       .  S
O449        H486   0.971       .  S
O450       Zr453   2.412       .  S
O450       Zr469   2.389       .  S
Zr451       O476   2.442       .  S
Zr451       O470   2.390       .  S
Zr451       O478   2.396       .  S
Zr451       O466   2.398       .  S
Zr451       O457   2.391       .  S
Zr451       O458   2.386       .  S
Zr451       O459   2.379       .  S
Zr451       O460   2.398       .  S
Zr452       O471   2.435       .  S
Zr452       O464   2.437       .  S
Zr452       O465   2.491       .  S
Zr452       O458   2.406       .  S
Zr452       O459   2.383       .  S
Zr453       O455   2.433       .  S
Zr453       O477   2.435       .  S
Zr453       O479   2.490       .  S
Zr453       O457   2.411       .  S
Zr453       O460   2.399       .  S
Zr454       O480   2.438       .  S
Zr454       O481   2.439       .  S
Zr454       O456   2.434       .  S
Zr454       O457   2.382       .  S
Zr454       O458   2.399       .  S
O455        H492   0.990       .  S
O456        H487   0.990       .  S
O456        H501   0.990       .  S
O458        H484   0.970       .  S
O459       Zr469   2.371       .  S
O460       Zr469   2.349       .  S
O460        H485   0.960       .  S
C461       C1398   1.461       .  S
C462       C1449   1.491       .  S
C463       C1542   1.477       .  S
O464        H500   0.990       .  S
O465        C467   1.295       .  A
O466        C467   1.277       .  A
C467        C966   1.486       .  S
O468       Zr469   2.436       .  S
O468        H497   0.991       .  S
Zr469       O472   2.435       .  S
Zr469       O473   2.439       .  S
Zr469       O474   2.427       .  S
O470        C475   1.277       .  A
O471        H488   0.990       .  S
O471        H503   0.990       .  S
O472        H489   0.990       .  S
O473        H493   0.990       .  S
O473        H502   0.990       .  S
O474        C475   1.284       .  A
C475        C982   1.454       .  S
O476        H495   0.989       .  S
O476        H499   0.991       .  S
O477        H491   0.991       .  S
O477        H498   0.990       .  S
O478        C482   1.269       .  A
O479        C482   1.285       .  A
O480        H490   0.990       .  S
O481        H494   0.990       .  S
C482        C950   1.509       .  S
Zr505       O506   2.444       .  S
Zr505       O507   2.410       .  S
Zr505       O508   2.370       .  S
Zr505       O511   2.379       .  S
Zr505       O513   2.379       .  S
Zr505       O514   2.390       .  S
Zr505       O515   2.398       .  S
Zr505       O516   2.389       .  S
O506        H562   0.990       .  S
O506        H570   0.990       .  S
O507        C527   1.276       .  A
O508        C529   1.270       .  A
O509       Zr519   2.516       .  S
O509        C528   1.293       .  A
O510       Zr518   2.525       .  S
O510        C529   1.301       .  A
O511        C528   1.263       .  A
O512       Zr520   2.389       .  S
O512        C527   1.275       .  A
O513       Zr518   2.400       .  S
O513       Zr520   2.385       .  S
O514       Zr519   2.409       .  S
O514       Zr520   2.377       .  S
O514        H549   0.969       .  S
O515       Zr518   2.409       .  S
O515       Zr535   2.397       .  S
O515        H552   0.965       .  S
O516       Zr519   2.408       .  S
O516       Zr535   2.389       .  S
Zr517       O542   2.447       .  S
Zr517       O536   2.389       .  S
Zr517       O544   2.386       .  S
Zr517       O532   2.373       .  S
Zr517       O523   2.389       .  S
Zr517       O524   2.413       .  S
Zr517       O525   2.385       .  S
Zr517       O526   2.393       .  S
Zr518       O537   2.434       .  S
Zr518       O530   2.439       .  S
Zr518       O531   2.523       .  S
Zr518       O524   2.416       .  S
Zr518       O525   2.394       .  S
Zr519       O521   2.433       .  S
Zr519       O543   2.435       .  S
Zr519       O545   2.507       .  S
Zr519       O523   2.411       .  S
Zr519       O526   2.415       .  S
Zr520       O546   2.435       .  S
Zr520       O547   2.438       .  S
Zr520       O522   2.442       .  S
Zr520       O523   2.381       .  S
Zr520       O524   2.380       .  S
O521        H558   0.990       .  S
O522        H553   0.990       .  S
O522        H567   0.990       .  S
O524        H550   0.964       .  S
O525       Zr535   2.371       .  S
O526       Zr535   2.380       .  S
O526        H551   0.967       .  S
C527       C1513   1.445       .  S
C528       C1465   1.506       .  S
C529       C1574   1.494       .  S
O530        H566   0.989       .  S
O531        C533   1.296       .  A
O532        C533   1.262       .  A
C533        C918   1.493       .  S
O534       Zr535   2.438       .  S
O534        H563   0.990       .  S
Zr535       O538   2.438       .  S
Zr535       O539   2.438       .  S
Zr535       O540   2.418       .  S
O536        C541   1.276       .  A
O537        H554   0.990       .  S
O537        H569   0.990       .  S
O538        H555   0.989       .  S
O539        H559   0.990       .  S
O539        H568   0.990       .  S
O540        C541   1.279       .  A
C541        C937   1.482       .  S
O542        H561   0.990       .  S
O542        H565   0.990       .  S
O543        H557   0.990       .  S
O543        H564   0.990       .  S
O544        C548   1.266       .  A
O545        C548   1.289       .  A
O546        H556   0.990       .  S
O547        H560   0.991       .  S
C548        C905   1.506       .  S
Zr571       O572   2.422       .  S
Zr571       O573   2.368       .  S
Zr571       O574   2.384       .  S
Zr571       O577   2.374       .  S
Zr571       O580   2.385       .  S
Zr571       O581   2.393       .  S
Zr571       O582   2.381       .  S
Zr571       O579   2.250       .  S
O572        H628   0.990       .  S
O572        H636   0.990       .  S
O573        C593   1.274       .  A
O574        C595   1.267       .  A
O575       Zr585   2.521       .  S
O575        C594   1.295       .  A
O576       Zr584   2.522       .  S
O576        C595   1.296       .  A
O577        C594   1.263       .  A
O578       Zr586   2.450       .  S
O578        C593   1.287       .  A
O579       Zr584   2.278       .  S
O579       Zr586   2.273       .  S
O580       Zr585   2.383       .  S
O580       Zr586   2.362       .  S
O580        H615   0.967       .  S
O581       Zr584   2.409       .  S
O581       Zr601   2.408       .  S
O581        H618   0.967       .  S
O582       Zr585   2.403       .  S
O582       Zr601   2.392       .  S
Zr583       O608   2.440       .  S
Zr583       O602   2.396       .  S
Zr583       O610   2.371       .  S
Zr583       O598   2.399       .  S
Zr583       O589   2.394       .  S
Zr583       O590   2.394       .  S
Zr583       O591   2.379       .  S
Zr583       O592   2.384       .  S
Zr584       O603   2.436       .  S
Zr584       O596   2.439       .  S
Zr584       O597   2.506       .  S
Zr584       O590   2.420       .  S
Zr584       O591   2.386       .  S
Zr585       O587   2.437       .  S
Zr585       O609   2.434       .  S
Zr585       O611   2.482       .  S
Zr585       O589   2.420       .  S
Zr585       O592   2.403       .  S
Zr586       O612   2.436       .  S
Zr586       O613   2.436       .  S
Zr586       O588   2.437       .  S
Zr586       O589   2.399       .  S
Zr586       O590   2.400       .  S
O587        H624   0.990       .  S
O588        H619   0.990       .  S
O588        H633   0.990       .  S
O590        H616   0.969       .  S
O591       Zr601   2.366       .  S
O592       Zr601   2.368       .  S
O592        H617   0.965       .  S
C593       C1430   1.462       .  S
C594       C1494   1.503       .  S
C595       C1609   1.490       .  S
O596        H632   0.990       .  S
O597        C599   1.296       .  A
O598        C599   1.271       .  A
C599        C870   1.497       .  S
O600       Zr601   2.436       .  S
O600        H629   0.990       .  S
Zr601       O604   2.434       .  S
Zr601       O605   2.441       .  S
Zr601       O606   2.423       .  S
O602        C607   1.275       .  A
O603        H620   0.990       .  S
O603        H635   0.990       .  S
O604        H621   0.990       .  S
O605        H625   0.990       .  S
O605        H634   0.990       .  S
O606        C607   1.283       .  A
C607        C886   1.480       .  S
O608        H627   0.990       .  S
O608        H631   0.991       .  S
O609        H623   0.990       .  S
O609        H630   0.990       .  S
O610        C614   1.275       .  A
O611        C614   1.292       .  A
O612        H622   0.990       .  S
O613        H626   0.990       .  S
C614        C854   1.467       .  S
C637        C638   1.393       .  A
C637        C642   1.399       .  A
C637        C889   1.471       .  S
C638        C639   1.396       .  A
C638        H643   1.086       .  S
C639        C640   1.411       .  A
C639        C810   1.473       .  S
C640        C641   1.417       .  A
C640        H644   1.079       .  S
C641        C642   1.397       .  A
C641        C969   1.485       .  S
C642        H645   1.084       .  S
C646        C647   1.389       .  A
C646        C651   1.392       .  A
C646       C1014   1.446       .  S
C647        C648   1.399       .  A
C647        H652   1.083       .  S
C648        C649   1.401       .  A
C648        C985   1.472       .  S
C649        C650   1.396       .  A
C649        H653   1.083       .  S
C650        C651   1.387       .  A
C650        C812   1.442       .  S
C651        H654   1.083       .  S
C655        C656   1.394       .  A
C655        C660   1.422       .  A
C655        C921   1.496       .  S
C656        C657   1.397       .  A
C656        H661   1.084       .  S
C657        C658   1.424       .  A
C657       C1030   1.525       .  S
C658        C659   1.430       .  A
C658        H662   1.078       .  S
C659        C660   1.423       .  A
C659        C811   1.520       .  S
C660        H663   1.083       .  S
C664        C665   1.395       .  A
C664        C669   1.396       .  A
C664        C934   1.473       .  S
C665        C666   1.400       .  A
C665        H670   1.083       .  S
C666        C667   1.426       .  A
C666        C813   1.495       .  S
C667        C668   1.426       .  A
C667        H671   1.083       .  S
C668        C669   1.395       .  A
C668        C873   1.498       .  S
C669        H672   1.085       .  S
C673        C674   1.423       .  A
C673        C678   1.393       .  A
C673       C1145   1.497       .  S
C674        C675   1.426       .  A
C674        H679   1.083       .  S
C675        C676   1.429       .  A
C675        C841   1.523       .  S
C676        C677   1.424       .  A
C676        H680   1.080       .  S
C677        C678   1.393       .  A
C677       C1241   1.506       .  S
C678        H681   1.086       .  S
C682        C683   1.401       .  A
C682        C687   1.400       .  A
C682       C1129   1.487       .  S
C683        C684   1.400       .  A
C683        H688   1.081       .  S
C684        C685   1.423       .  A
C684        C848   1.495       .  S
C685        C686   1.427       .  A
C685        H689   1.083       .  S
C686        C687   1.399       .  A
C686       C1094   1.502       .  S
C687        H690   1.084       .  S
C691        C692   1.423       .  A
C691        C696   1.392       .  A
C691       C1081   1.495       .  S
C692        C693   1.419       .  A
C692        H697   1.079       .  S
C693        C694   1.421       .  A
C693        C842   1.512       .  S
C694        C695   1.418       .  A
C694        H698   1.082       .  S
C695        C696   1.395       .  A
C695       C1190   1.501       .  S
C696        H699   1.085       .  S
C700        C701   1.384       .  A
C700        C705   1.395       .  A
C700       C1257   1.469       .  S
C701        C702   1.394       .  A
C701        H706   1.082       .  S
C702        C703   1.439       .  A
C702        C847   1.504       .  S
C703        C704   1.442       .  A
C703        H707   1.082       .  S
C704        C705   1.399       .  A
C704       C1174   1.522       .  S
C705        H708   1.085       .  S
C709        C710   1.389       .  A
C709        C714   1.395       .  A
C709       C1062   1.476       .  S
C710        C711   1.397       .  A
C710        H715   1.084       .  S
C711        C712   1.416       .  A
C711        C845   1.472       .  S
C712        C713   1.424       .  A
C712        H716   1.080       .  S
C713        C714   1.412       .  A
C713        C857   1.518       .  S
C714        H717   1.082       .  S
C718        C719   1.424       .  A
C718        C723   1.390       .  A
C718       C1113   1.499       .  S
C719        C720   1.419       .  A
C719        H724   1.079       .  S
C720        C721   1.421       .  A
C720        C844   1.513       .  S
C721        C722   1.419       .  A
C721        H725   1.077       .  S
C722        C723   1.396       .  A
C722        C902   1.500       .  S
C723        H726   1.086       .  S
C727        C728   1.395       .  A
C727        C732   1.390       .  A
C727       C1161   1.467       .  S
C728        C729   1.399       .  A
C728        H733   1.085       .  S
C729        C730   1.419       .  A
C729        C846   1.476       .  S
C730        C731   1.419       .  A
C730        H734   1.080       .  S
C731        C732   1.394       .  A
C731        C953   1.484       .  S
C732        H735   1.086       .  S
C736        C737   1.425       .  A
C736        C741   1.387       .  A
C736       C1222   1.497       .  S
C737        C738   1.430       .  A
C737        H742   1.083       .  S
C738        C739   1.433       .  A
C738        C843   1.528       .  S
C739        C740   1.429       .  A
C739        H743   1.083       .  S
C740        C741   1.385       .  A
C740       C1001   1.509       .  S
C741        H744   1.087       .  S
O745       Zr781   2.473   1_566  S
O745        C756   1.300       .  A
O746       Zr780   2.427   1_566  S
O746        C757   1.289       .  A
O747       Zr753   2.484       .  S
O747        C758   1.299       .  A
O748       Zr753   2.477   1_554  S
O748        C759   1.299       .  A
O749       Zr783   2.530   1_565  S
O749        C759   1.309       .  A
O750       Zr782   2.432   1_565  S
O750        C758   1.291       .  A
O751       Zr753   2.489   1_455  S
O751        C757   1.301       .  A
O752       Zr753   2.468       .  S
O752        C756   1.296       .  A
Zr753       O754   2.364   1_556  S
Zr753       O755   2.358       .  S
Zr753       O763   2.370   1_556  S
Zr753       O761   2.325       .  S
O754       Zr780   2.355   1_665  S
O754       Zr783   2.349   1_565  S
O755       Zr781   2.353   1_566  S
O755       Zr782   2.336   1_565  S
H760        O761   0.963       .  S
O761       Zr780   2.354   1_666  S
O761       Zr782   2.339   1_565  S
H762        O763   0.965       .  S
O763       Zr781   2.356   1_565  S
O763       Zr783   2.346   1_565  S
O764       Zr780   2.493       .  S
O764        C787   1.301       .  A
O765       Zr781   2.487       .  S
O765        C788   1.301       .  A
O766       Zr782   2.443       .  S
O766        C789   1.292   1_655  A
O767       Zr783   2.459       .  S
O767        C790   1.293   1_655  A
O768       Zr783   2.464   1_565  S
O768        C791   1.296       .  A
O769       Zr782   2.485       .  S
O769        C792   1.301       .  A
O770       Zr784   2.564   1_556  S
O770        C793   1.317       .  A
O771       Zr784   2.547       .  S
O771        C794   1.315       .  A
O772       Zr782   2.445       .  S
O772        C793   1.292       .  A
O773       Zr783   2.477       .  S
O773        C794   1.300       .  A
O774       Zr780   2.392   1_556  S
O774        C789   1.284       .  A
O775       Zr781   2.452   1_566  S
O775        C792   1.291   1_565  A
O776       Zr781   2.487   1_565  S
O776        C791   1.300       .  A
O777       Zr780   2.458       .  S
O777        C790   1.296       .  A
O778       Zr784   2.565       .  S
O778        C787   1.316   1_655  A
O779       Zr784   2.535       .  S
O779        C788   1.312       .  A
Zr780       O786   2.346   1_454  S
Zr780       O798   2.329   1_455  S
Zr781       O785   2.364       .  S
Zr781       O796   2.381   1_554  S
Zr782       O786   2.361       .  S
Zr782       O796   2.353       .  S
Zr783       O785   2.381       .  S
Zr783       O798   2.394       .  S
Zr784       O785   2.407       .  S
Zr784       O786   2.347   1_554  S
Zr784       O798   2.391       .  S
Zr784       O796   2.393   1_554  S
H795        O796   0.964       .  S
H797        O798   0.963       .  S
O799       Zr835   2.453       .  S
O799        C810   1.293       .  A
O800       Zr834   2.568       .  S
O800        C811   1.318       .  A
O801       Zr807   2.436       .  S
O801        C812   1.291       .  A
O802       Zr807   2.456       .  S
O802        C813   1.296       .  A
O803       Zr837   2.480       .  S
O803        C813   1.297       .  A
O804       Zr836   2.391       .  S
O804        C812   1.282       .  A
O805       Zr807   2.415       .  S
O805        C811   1.287       .  A
O806       Zr807   2.434       .  S
O806        C810   1.291       .  A
Zr807       O808   2.349       .  S
Zr807       O809   2.328       .  S
Zr807       O817   2.329       .  S
Zr807       O815   2.356       .  S
O808       Zr834   2.371       .  S
O808       Zr837   2.355       .  S
O809       Zr835   2.330       .  S
O809       Zr836   2.345       .  S
H814        O815   0.965       .  S
O815       Zr834   2.357       .  S
O815       Zr836   2.356       .  S
H816        O817   0.966       .  S
O817       Zr835   2.343       .  S
O817       Zr837   2.347       .  S
O818       Zr834   2.528       .  S
O818        C841   1.311       .  A
O819       Zr835   2.448       .  S
O819        C842   1.294       .  A
O820       Zr836   2.477       .  S
O820        C843   1.298       .  A
O821       Zr837   2.464       .  S
O821        C844   1.296       .  A
O822       Zr837   2.436       .  S
O822        C845   1.292       .  A
O823       Zr836   2.436       .  S
O823        C846   1.291       .  A
O824       Zr838   2.498       .  S
O824        C847   1.300       .  A
O825       Zr838   2.470       .  S
O825        C848   1.299       .  A
O826       Zr836   2.449       .  S
O826        C847   1.296       .  A
O827       Zr837   2.468       .  S
O827        C848   1.296       .  A
O828       Zr834   2.537       .  S
O828        C843   1.311       .  A
O829       Zr835   2.466       .  S
O829        C846   1.296       .  A
O830       Zr835   2.456       .  S
O830        C845   1.294       .  A
O831       Zr834   2.518       .  S
O831        C844   1.308       .  A
O832       Zr838   2.487       .  S
O832        C841   1.302       .  A
O833       Zr838   2.521       .  S
O833        C842   1.307       .  A
Zr834       O840   2.391       .  S
Zr834       O852   2.396       .  S
Zr835       O839   2.362       .  S
Zr835       O850   2.347       .  S
Zr836       O840   2.335       .  S
Zr836       O850   2.343       .  S
Zr837       O839   2.360       .  S
Zr837       O852   2.366       .  S
Zr838       O839   2.354       .  S
Zr838       O840   2.381       .  S
Zr838       O852   2.391       .  S
Zr838       O850   2.343       .  S
H849        O850   0.965       .  S
H851        O852   0.970       .  S
C853        C854   1.405       .  A
C853        C858   1.414       .  A
C853        H860   1.085       .  S
C854        C855   1.402       .  A
C855        C856   1.394       .  A
C855        C862   1.508       .  S
C856        C857   1.417       .  A
C856        H861   1.081       .  S
C857        C858   1.427       .  A
C858        C859   1.505       .  S
C859        H863   1.111       .  S
C859        H864   1.111       .  S
C859        H865   1.106       .  S
C862        H866   1.111       .  S
C862        H867   1.110       .  S
C862        H868   1.111       .  S
C869        C870   1.405       .  A
C869        C874   1.413       .  A
C869        H876   1.084       .  S
C870        C871   1.421       .  A
C871        C872   1.412       .  A
C871        C878   1.507       .  S
C872        C873   1.402       .  A
C872        H877   1.084       .  S
C873        C874   1.419       .  A
C874        C875   1.508       .  S
C875        H879   1.110       .  S
C875        H880   1.109       .  S
C875        H881   1.109       .  S
C878        H882   1.109       .  S
C878        H883   1.110       .  S
C878        H884   1.111       .  S
C885        C886   1.407       .  A
C885        C890   1.396       .  A
C885        H892   1.084       .  S
C886        C887   1.423       .  A
C887        C888   1.394       .  A
C887        C894   1.512       .  S
C888        C889   1.401       .  A
C888        H893   1.084       .  S
C889        C890   1.408       .  A
C890        C891   1.506       .  S
C891        H895   1.111       .  S
C891        H896   1.109       .  S
C891        H897   1.110       .  S
C894        H898   1.110       .  S
C894        H899   1.109       .  S
C894        H900   1.111       .  S
C901        C902   1.403       .  A
C901        C906   1.399       .  A
C901        H908   1.085       .  S
C902        C903   1.418       .  A
C903        C904   1.423       .  A
C903        C910   1.504       .  S
C904        C905   1.414       .  A
C904        H909   1.084       .  S
C905        C906   1.423       .  A
C906        C907   1.513       .  S
C907        H911   1.111       .  S
C907        H912   1.107       .  S
C907        H913   1.110       .  S
C910        H914   1.109       .  S
C910        H915   1.110       .  S
C910        H916   1.110       .  S
C917        C918   1.404       .  A
C917        C922   1.412       .  A
C917        H924   1.084       .  S
C918        C919   1.424       .  A
C919        C920   1.409       .  A
C919        C926   1.507       .  S
C920        C921   1.399       .  A
C920        H925   1.084       .  S
C921        C922   1.422       .  A
C922        C923   1.508       .  S
C923        H927   1.111       .  S
C923        H928   1.108       .  S
C923        H929   1.109       .  S
C926        H930   1.108       .  S
C926        H931   1.110       .  S
C926        H932   1.111       .  S
C933        C934   1.404       .  A
C933        C938   1.403       .  A
C933        H940   1.084       .  S
C934        C935   1.411       .  A
C935        C936   1.388       .  A
C935        C942   1.508       .  S
C936        C937   1.407       .  A
C936        H941   1.083       .  S
C937        C938   1.418       .  A
C938        C939   1.507       .  S
C939        H943   1.111       .  S
C939        H944   1.110       .  S
C939        H945   1.110       .  S
C942        H946   1.110       .  S
C942        H947   1.108       .  S
C942        H948   1.110       .  S
C949        C950   1.410       .  A
C949        C954   1.400       .  A
C949        H956   1.079       .  S
C950        C951   1.422       .  A
C951        C952   1.418       .  A
C951        C958   1.505       .  S
C952        C953   1.408       .  A
C952        H957   1.084       .  S
C953        C954   1.408       .  A
C954        C955   1.510       .  S
C955        H959   1.111       .  S
C955        H960   1.110       .  S
C955        H961   1.110       .  S
C958        H962   1.110       .  S
C958        H963   1.109       .  S
C958        H964   1.111       .  S
C965        C966   1.405       .  A
C965        C970   1.411       .  A
C965        H972   1.084       .  S
C966        C967   1.419       .  A
C967        C968   1.405       .  A
C967        C974   1.506       .  S
C968        C969   1.400       .  A
C968        H973   1.084       .  S
C969        C970   1.415       .  A
C970        C971   1.506       .  S
C971        H975   1.110       .  S
C971        H976   1.111       .  S
C971        H977   1.111       .  S
C974        H978   1.109       .  S
C974        H979   1.110       .  S
C974        H980   1.111       .  S
C981        C982   1.399       .  A
C981        C986   1.394       .  A
C981        H988   1.085       .  S
C982        C983   1.406       .  A
C983        C984   1.391       .  A
C983        C990   1.504       .  S
C984        C985   1.404       .  A
C984        H989   1.083       .  S
C985        C986   1.416       .  A
C986        C987   1.508       .  S
C987        H991   1.110       .  S
C987        H992   1.110       .  S
C987        H993   1.109       .  S
C990        H994   1.104       .  S
C990        H995   1.108       .  S
C990        H996   1.104       .  S
C997        C998   1.419       .  A
C997       C1002   1.409       .  A
C997       H1004   1.082       .  S
C998        C999   1.415       .  A
C999       C1000   1.422       .  A
C999       C1006   1.505       .  S
C1000      C1001   1.420       .  A
C1000      H1005   1.084       .  S
C1001      C1002   1.408       .  A
C1002      C1003   1.508       .  S
C1003      H1007   1.111       .  S
C1003      H1008   1.108       .  S
C1003      H1009   1.110       .  S
C1006      H1010   1.109       .  S
C1006      H1011   1.111       .  S
C1006      H1012   1.111       .  S
C1013      C1014   1.400       .  A
C1013      C1018   1.393       .  A
C1013      H1020   1.085       .  S
C1014      C1015   1.402       .  A
C1015      C1016   1.393       .  A
C1015      C1022   1.507       .  S
C1016      C1017   1.403       .  A
C1016      H1021   1.084       .  S
C1017      C1018   1.404       .  A
C1018      C1019   1.503       .  S
C1019      H1023   1.111       .  S
C1019      H1024   1.110       .  S
C1019      H1025   1.107       .  S
C1022      H1026   1.110       .  S
C1022      H1027   1.110       .  S
C1022      H1028   1.111       .  S
C1029      C1030   1.424       .  A
C1029      C1034   1.418       .  A
C1029      H1036   1.083       .  S
C1030      C1031   1.416       .  A
C1031      C1032   1.410       .  A
C1031      C1038   1.508       .  S
C1032      C1033   1.403       .  A
C1032      H1037   1.061       .  S
C1033      C1034   1.407       .  A
C1034      C1035   1.503       .  S
C1035      H1039   1.111       .  S
C1035      H1040   1.110       .  S
C1035      H1041   1.110       .  S
C1038      H1042   1.108       .  S
C1038      H1043   1.106       .  S
C1038      H1044   1.111       .  S
C1045      C1046   1.420       .  A
C1045      C1050   1.421       .  A
C1045      H1052   1.084       .  S
C1046      C1047   1.419       .  A
C1047      C1048   1.424       .  A
C1047      C1054   1.506       .  S
C1048      C1049   1.421       .  A
C1048      H1053   1.084       .  S
C1049      C1050   1.413       .  A
C1050      C1051   1.505       .  S
C1051      H1055   1.111       .  S
C1051      H1056   1.110       .  S
C1051      H1057   1.110       .  S
C1054      H1058   1.110       .  S
C1054      H1059   1.105       .  S
C1054      H1060   1.111       .  S
C1061      C1062   1.402       .  A
C1061      C1066   1.404       .  A
C1061      H1068   1.084       .  S
C1062      C1063   1.407       .  A
C1063      C1064   1.399       .  A
C1063      C1070   1.499       .  S
C1064      C1065   1.404       .  A
C1064      H1069   1.084       .  S
C1065      C1066   1.414       .  A
C1066      C1067   1.505       .  S
C1067      H1071   1.111       .  S
C1067      H1072   1.108       .  S
C1067      H1073   1.111       .  S
C1070      H1074   1.109       .  S
C1070      H1075   1.108       .  S
C1070      H1076   1.106       .  S
C1077      C1078   1.404       .  A
C1077      C1082   1.413       .  A
C1077      H1084   1.084       .  S
C1078      C1079   1.420       .  A
C1079      C1080   1.409       .  A
C1079      C1086   1.507       .  S
C1080      C1081   1.401       .  A
C1080      H1085   1.084       .  S
C1081      C1082   1.422       .  A
C1082      C1083   1.508       .  S
C1083      H1087   1.111       .  S
C1083      H1088   1.110       .  S
C1083      H1089   1.108       .  S
C1086      H1090   1.110       .  S
C1086      H1091   1.110       .  S
C1086      H1092   1.110       .  S
C1093      C1094   1.418       .  A
C1093      C1098   1.428       .  A
C1093      H1100   1.083       .  S
C1094      C1095   1.406       .  A
C1095      C1096   1.400       .  A
C1095      C1102   1.511       .  S
C1096      C1097   1.416       .  A
C1096      H1101   1.076       .  S
C1097      C1098   1.417       .  A
C1098      C1099   1.502       .  S
C1099      H1103   1.111       .  S
C1099      H1104   1.110       .  S
C1099      H1105   1.110       .  S
C1102      H1106   1.108       .  S
C1102      H1107   1.110       .  S
C1102      H1108   1.111       .  S
C1109      C1110   1.408       .  A
C1109      C1114   1.418       .  A
C1109      H1116   1.084       .  S
C1110      C1111   1.425       .  A
C1111      C1112   1.408       .  A
C1111      C1118   1.510       .  S
C1112      C1113   1.399       .  A
C1112      H1117   1.085       .  S
C1113      C1114   1.423       .  A
C1114      C1115   1.506       .  S
C1115      H1119   1.110       .  S
C1115      H1120   1.111       .  S
C1115      H1121   1.109       .  S
C1118      H1122   1.110       .  S
C1118      H1123   1.106       .  S
C1118      H1124   1.111       .  S
C1125      C1126   1.401       .  A
C1125      C1130   1.399       .  A
C1125      H1132   1.084       .  S
C1126      C1127   1.422       .  A
C1127      C1128   1.407       .  A
C1127      C1134   1.507       .  S
C1128      C1129   1.404       .  A
C1128      H1133   1.084       .  S
C1129      C1130   1.411       .  A
C1130      C1131   1.500       .  S
C1131      H1135   1.100       .  S
C1131      H1136   1.106       .  S
C1131      H1137   1.110       .  S
C1134      H1138   1.110       .  S
C1134      H1139   1.109       .  S
C1134      H1140   1.111       .  S
C1141      C1142   1.410       .  A
C1141      C1146   1.417       .  A
C1141      H1148   1.083       .  S
C1142      C1143   1.419       .  A
C1143      C1144   1.410       .  A
C1143      C1150   1.508       .  S
C1144      C1145   1.405       .  A
C1144      H1149   1.084       .  S
C1145      C1146   1.415       .  A
C1146      C1147   1.505       .  S
C1147      H1151   1.110       .  S
C1147      H1152   1.110       .  S
C1147      H1153   1.111       .  S
C1150      H1154   1.108       .  S
C1150      H1155   1.110       .  S
C1150      H1156   1.111       .  S
C1157      C1158   1.401       .  A
C1157      C1162   1.403       .  A
C1157      H1164   1.077       .  S
C1158      C1159   1.411       .  A
C1159      C1160   1.393       .  A
C1159      C1166   1.509       .  S
C1160      C1161   1.401       .  A
C1160      H1165   1.085       .  S
C1161      C1162   1.409       .  A
C1162      C1163   1.506       .  S
C1163      H1167   1.107       .  S
C1163      H1168   1.110       .  S
C1163      H1169   1.108       .  S
C1166      H1170   1.108       .  S
C1166      H1171   1.106       .  S
C1166      H1172   1.110       .  S
C1173      C1174   1.405       .  A
C1173      C1178   1.420       .  A
C1173      H1180   1.084       .  S
C1174      C1175   1.435       .  A
C1175      C1176   1.415       .  A
C1175      C1182   1.511       .  S
C1176      C1177   1.403       .  A
C1176      H1181   1.084       .  S
C1177      C1178   1.428       .  A
C1178      C1179   1.508       .  S
C1179      H1183   1.110       .  S
C1179      H1184   1.109       .  S
C1179      H1185   1.107       .  S
C1182      H1186   1.104       .  S
C1182      H1187   1.111       .  S
C1182      H1188   1.110       .  S
C1189      C1190   1.421       .  A
C1189      C1194   1.420       .  A
C1189      H1196   1.084       .  S
C1190      C1191   1.410       .  A
C1191      C1192   1.398       .  A
C1191      C1198   1.511       .  S
C1192      C1193   1.403       .  A
C1192      H1197   1.065       .  S
C1193      C1194   1.409       .  A
C1194      C1195   1.502       .  S
C1195      H1199   1.111       .  S
C1195      H1200   1.110       .  S
C1195      H1201   1.110       .  S
C1198      H1202   1.109       .  S
C1198      H1203   1.110       .  S
C1198      H1204   1.111       .  S
C1205      C1206   1.404       .  A
C1205      C1210   1.411       .  A
C1205      H1212   1.084       .  S
C1206      C1207   1.415       .  A
C1207      C1208   1.415       .  A
C1207      C1214   1.504       .  S
C1208      C1209   1.407       .  A
C1208      H1213   1.083       .  S
C1209      C1210   1.420       .  A
C1210      C1211   1.508       .  S
C1211      H1215   1.111       .  S
C1211      H1216   1.111       .  S
C1211      H1217   1.108       .  S
C1214      H1218   1.106       .  S
C1214      H1219   1.110       .  S
C1214      H1220   1.110       .  S
C1221      C1222   1.413       .  A
C1221      C1226   1.415       .  A
C1221      H1228   1.084       .  S
C1222      C1223   1.410       .  A
C1223      C1224   1.410       .  A
C1223      C1230   1.507       .  S
C1224      C1225   1.414       .  A
C1224      H1229   1.084       .  S
C1225      C1226   1.416       .  A
C1226      C1227   1.505       .  S
C1227      H1231   1.111       .  S
C1227      H1232   1.111       .  S
C1227      H1233   1.104       .  S
C1230      H1234   1.111       .  S
C1230      H1235   1.110       .  S
C1230      H1236   1.111       .  S
C1237      C1238   1.404       .  A
C1237      C1242   1.403       .  A
C1237      H1244   1.085       .  S
C1238      C1239   1.416       .  A
C1239      C1240   1.422       .  A
C1239      C1246   1.503       .  S
C1240      C1241   1.410       .  A
C1240      H1245   1.083       .  S
C1241      C1242   1.422       .  A
C1242      C1243   1.511       .  S
C1243      H1247   1.111       .  S
C1243      H1248   1.107       .  S
C1243      H1249   1.111       .  S
C1246      H1250   1.111       .  S
C1246      H1251   1.110       .  S
C1246      H1252   1.111       .  S
C1253      C1254   1.401       .  A
C1253      C1258   1.391       .  A
C1253      H1260   1.085       .  S
C1254      C1255   1.410       .  A
C1255      C1256   1.395       .  A
C1255      C1262   1.507       .  S
C1256      C1257   1.402       .  A
C1256      H1261   1.084       .  S
C1257      C1258   1.415       .  A
C1258      C1259   1.507       .  S
C1259      H1263   1.111       .  S
C1259      H1264   1.106       .  S
C1259      H1265   1.109       .  S
C1262      H1266   1.111       .  S
C1262      H1267   1.110       .  S
C1262      H1268   1.108       .  S
C1269      C1270   1.401       .  A
C1269      C1274   1.405       .  A
C1269      H1276   1.085       .  S
C1270      C1271   1.426       .  A
C1271      C1272   1.415       .  A
C1271      C1278   1.508       .  S
C1272      C1273   1.404       .  A
C1272      H1277   1.084       .  S
C1273      C1274   1.423       .  A
C1274      C1275   1.510       .  S
C1275      H1279   1.111       .  S
C1275      H1280   1.108       .  S
C1275      H1281   1.110       .  S
C1278      H1282   1.110       .  S
C1278      H1283   1.108       .  S
C1278      H1284   1.108       .  S
C1285      C1286   1.394       .  A
C1285      C1290   1.398       .  A
C1285      H1292   1.076       .  S
C1286      C1287   1.409       .  A
C1287      C1288   1.392       .  A
C1287      C1294   1.506       .  S
C1288      C1289   1.400       .  A
C1288      H1293   1.085       .  S
C1289      C1290   1.415       .  A
C1290      C1291   1.508       .  S
C1291      H1295   1.110       .  S
C1291      H1296   1.110       .  S
C1291      H1297   1.106       .  S
C1294      H1298   1.104       .  S
C1294      H1299   1.111       .  S
C1294      H1300   1.108       .  S
C1301      C1302   1.404       .  A
C1301      C1306   1.403       .  A
C1301      H1308   1.085       .  S
C1302      C1303   1.417       .  A
C1303      C1304   1.421       .  A
C1303      C1310   1.503       .  S
C1304      C1305   1.411       .  A
C1304      H1309   1.084       .  S
C1305      C1306   1.417       .  A
C1306      C1307   1.509       .  S
C1307      H1311   1.110       .  S
C1307      H1312   1.109       .  S
C1307      H1313   1.110       .  S
C1310      H1314   1.110       .  S
C1310      H1315   1.109       .  S
C1310      H1316   1.110       .  S
C1317      C1318   1.421   1_455  A
C1317      C1322   1.420       .  A
C1317      H1324   1.084   1_455  S
C1318      C1319   1.411   1_655  A
C1319      C1320   1.404       .  A
C1319      C1326   1.508       .  S
C1320      C1321   1.406       .  A
C1320      H1325   1.068       .  S
C1321      C1322   1.412       .  A
C1322      C1323   1.504       .  S
C1323      H1327   1.111       .  S
C1323      H1328   1.110       .  S
C1323      H1329   1.110       .  S
C1326      H1330   1.110   1_455  S
C1326      H1331   1.109       .  S
C1326      H1332   1.111       .  S
C1333      C1334   1.409       .  A
C1333      C1338   1.425       .  A
C1333      H1340   1.083       .  S
C1334      C1335   1.419       .  A
C1335      C1336   1.405       .  A
C1335      C1342   1.510       .  S
C1336      C1337   1.407       .  A
C1336      H1341   1.085       .  S
C1337      C1338   1.423       .  A
C1338      C1339   1.503       .  S
C1339      H1343   1.111       .  S
C1339      H1344   1.110       .  S
C1339      H1345   1.105       .  S
C1342      H1346   1.110       .  S
C1342      H1347   1.108       .  S
C1342      H1348   1.111       .  S
C1349      C1350   1.408       .  A
C1349      C1354   1.406       .  A
C1349      H1356   1.084       .  S
C1350      C1351   1.413       .  A
C1351      C1352   1.399       .  A
C1351      C1358   1.504       .  S
C1352      C1353   1.405       .  A
C1352      H1357   1.084       .  S
C1353      C1354   1.417       .  A
C1354      C1355   1.506       .  S
C1355      H1359   1.111       .  S
C1355      H1360   1.109       .  S
C1355      H1361   1.110       .  S
C1358      H1362   1.110       .  S
C1358      H1363   1.106       .  S
C1358      H1364   1.104       .  S
C1365      C1366   1.412       .  A
C1365      C1370   1.426       .  A
C1365      H1372   1.083       .  S
C1366      C1367   1.413       .  A
C1367      C1368   1.398       .  A
C1367      C1374   1.512   1_455  S
C1368      C1369   1.410       .  A
C1368      H1373   1.084       .  S
C1369      C1370   1.422       .  A
C1370      C1371   1.503       .  S
C1371      H1375   1.111       .  S
C1371      H1376   1.110       .  S
C1371      H1377   1.110       .  S
C1374      H1378   1.110       .  S
C1374      H1379   1.108       .  S
C1374      H1380   1.110   1_655  S
C1381      C1382   1.406       .  A
C1381      C1386   1.414       .  A
C1381      H1388   1.085       .  S
C1382      C1383   1.425       .  A
C1383      C1384   1.420       .  A
C1383      C1390   1.505       .  S
C1384      C1385   1.406       .  A
C1384      H1389   1.084       .  S
C1385      C1386   1.423       .  A
C1386      C1387   1.508       .  S
C1387      H1391   1.111       .  S
C1387      H1392   1.109       .  S
C1387      H1393   1.110       .  S
C1390      H1394   1.108       .  S
C1390      H1395   1.110       .  S
C1390      H1396   1.111       .  S
C1397      C1398   1.398       .  A
C1397      C1402   1.399       .  A
C1397      H1404   1.077       .  S
C1398      C1399   1.407       .  A
C1399      C1400   1.392       .  A
C1399      C1406   1.511       .  S
C1400      C1401   1.411       .  A
C1400      H1405   1.082       .  S
C1401      C1402   1.416       .  A
C1402      C1403   1.507       .  S
C1403      H1407   1.107       .  S
C1403      H1408   1.110       .  S
C1403      H1409   1.109       .  S
C1406      H1410   1.109       .  S
C1406      H1411   1.109       .  S
C1406      H1412   1.111       .  S
C1413      C1414   1.403       .  A
C1413      C1418   1.377       .  A
C1413      H1420   1.084       .  S
C1414      C1415   1.408       .  A
C1415      C1416   1.397       .  A
C1415      C1422   1.506       .  S
C1416      C1417   1.405       .  A
C1416      H1421   1.084       .  S
C1417      C1418   1.409       .  A
C1418      C1419   1.510       .  S
C1419      H1423   1.112       .  S
C1419      H1424   1.102       .  S
C1419      H1425   1.107       .  S
C1422      H1426   1.111       .  S
C1422      H1427   1.108       .  S
C1422      H1428   1.111       .  S
C1429      C1430   1.403       .  A
C1429      C1434   1.386       .  A
C1429      H1436   1.085       .  S
C1430      C1431   1.408       .  A
C1431      C1432   1.402       .  A
C1431      C1438   1.505       .  S
C1432      C1433   1.407       .  A
C1432      H1437   1.084       .  S
C1433      C1434   1.407       .  A
C1434      C1435   1.503       .  S
C1435      H1439   1.110       .  S
C1435      H1440   1.108       .  S
C1435      H1441   1.110       .  S
C1438      H1442   1.110       .  S
C1438      H1443   1.109       .  S
C1438      H1444   1.111       .  S
C1445      C1446   1.403   1_455  A
C1445      C1450   1.411       .  A
C1445      H1452   1.084   1_455  S
C1446      C1447   1.423   1_655  A
C1447      C1448   1.404       .  A
C1447      C1454   1.511   1_455  S
C1448      C1449   1.401       .  A
C1448      H1453   1.084       .  S
C1449      C1450   1.422       .  A
C1450      C1451   1.510       .  S
C1451      H1455   1.111       .  S
C1451      H1456   1.107       .  S
C1451      H1457   1.110       .  S
C1454      H1458   1.110       .  S
C1454      H1459   1.107       .  S
C1454      H1460   1.108   1_655  S
C1461      C1462   1.402       .  A
C1461      C1466   1.415       .  A
C1461      H1468   1.084       .  S
C1462      C1463   1.420       .  A
C1463      C1464   1.413       .  A
C1463      C1470   1.504       .  S
C1464      C1465   1.404       .  A
C1464      H1469   1.084       .  S
C1465      C1466   1.428       .  A
C1466      C1467   1.508       .  S
C1467      H1471   1.111       .  S
C1467      H1472   1.111       .  S
C1467      H1473   1.107       .  S
C1470      H1474   1.106       .  S
C1470      H1475   1.107       .  S
C1470      H1476   1.110       .  S
C1477      C1478   1.407       .  A
C1477      C1482   1.421       .  A
C1477      H1484   1.083       .  S
C1478      C1479   1.428       .  A
C1479      C1480   1.411       .  A
C1479      C1486   1.511   1_455  S
C1480      C1481   1.402       .  A
C1480      H1485   1.085       .  S
C1481      C1482   1.423       .  A
C1482      C1483   1.506       .  S
C1483      H1487   1.111       .  S
C1483      H1488   1.110       .  S
C1483      H1489   1.110       .  S
C1486      H1490   1.108       .  S
C1486      H1491   1.110       .  S
C1486      H1492   1.110   1_655  S
C1493      C1494   1.405       .  A
C1493      C1498   1.413       .  A
C1493      H1500   1.084       .  S
C1494      C1495   1.424       .  A
C1495      C1496   1.416       .  A
C1495      C1502   1.508       .  S
C1496      C1497   1.404       .  A
C1496      H1501   1.084       .  S
C1497      C1498   1.421       .  A
C1498      C1499   1.508       .  S
C1499      H1503   1.109       .  S
C1499      H1504   1.109       .  S
C1499      H1505   1.108       .  S
C1502      H1506   1.108       .  S
C1502      H1507   1.110       .  S
C1502      H1508   1.111       .  S
C1509      C1510   1.399       .  A
C1509      C1514   1.387       .  A
C1509      H1516   1.084       .  S
C1510      C1511   1.412       .  A
C1511      C1512   1.399       .  A
C1511      C1518   1.507       .  S
C1512      C1513   1.396       .  A
C1512      H1517   1.080       .  S
C1513      C1514   1.407       .  A
C1514      C1515   1.508       .  S
C1515      H1519   1.110       .  S
C1515      H1520   1.108       .  S
C1515      H1521   1.107       .  S
C1518      H1522   1.110       .  S
C1518      H1523   1.110       .  S
C1518      H1524   1.109       .  S
C1525      C1526   1.405       .  A
C1525      C1530   1.406       .  A
C1525      H1532   1.084       .  S
C1526      C1527   1.412       .  A
C1527      C1528   1.393       .  A
C1527      C1534   1.509       .  S
C1528      C1529   1.400       .  A
C1528      H1533   1.085       .  S
C1529      C1530   1.415       .  A
C1530      C1531   1.508       .  S
C1531      H1535   1.111       .  S
C1531      H1536   1.109       .  S
C1531      H1537   1.110       .  S
C1534      H1538   1.110       .  S
C1534      H1539   1.108       .  S
C1534      H1540   1.108       .  S
C1541      C1542   1.408       .  A
C1541      C1546   1.415       .  A
C1541      H1548   1.080       .  S
C1542      C1543   1.412       .  A
C1543      C1544   1.396       .  A
C1543      C1550   1.509       .  S
C1544      C1545   1.405       .  A
C1544      H1549   1.085       .  S
C1545      C1546   1.414       .  A
C1546      C1547   1.504       .  S
C1547      H1551   1.108       .  S
C1547      H1552   1.110       .  S
C1547      H1553   1.110       .  S
C1550      H1554   1.109       .  S
C1550      H1555   1.110       .  S
C1550      H1556   1.111       .  S
C1557      C1558   1.408       .  A
C1557      C1562   1.415       .  A
C1557      H1564   1.084       .  S
C1558      C1559   1.422       .  A
C1559      C1560   1.410       .  A
C1559      C1566   1.508       .  S
C1560      C1561   1.402       .  A
C1560      H1565   1.084       .  S
C1561      C1562   1.421       .  A
C1562      C1563   1.506       .  S
C1563      H1567   1.111       .  S
C1563      H1568   1.109       .  S
C1563      H1569   1.110       .  S
C1566      H1570   1.108       .  S
C1566      H1571   1.110       .  S
C1566      H1572   1.111       .  S
C1573      C1574   1.412       .  A
C1573      C1578   1.424       .  A
C1573      H1580   1.078       .  S
C1574      C1575   1.415       .  A
C1575      C1576   1.402       .  A
C1575      C1582   1.508       .  S
C1576      C1577   1.409       .  A
C1576      H1581   1.085       .  S
C1577      C1578   1.417       .  A
C1578      C1579   1.504       .  S
C1579      H1583   1.111       .  S
C1579      H1584   1.110       .  S
C1579      H1585   1.110       .  S
C1582      H1586   1.109       .  S
C1582      H1587   1.110       .  S
C1582      H1588   1.110       .  S
C1589      C1590   1.400       .  A
C1589      C1594   1.394       .  A
C1589      H1596   1.084       .  S
C1590      C1591   1.416       .  A
C1591      C1592   1.402       .  A
C1591      C1598   1.509       .  S
C1592      C1593   1.406       .  A
C1592      H1597   1.083       .  S
C1593      C1594   1.413       .  A
C1594      C1595   1.503       .  S
C1595      H1599   1.108       .  S
C1595      H1600   1.105       .  S
C1595      H1601   1.109       .  S
C1598      H1602   1.110       .  S
C1598      H1603   1.109       .  S
C1598      H1604   1.111       .  S
C1605      C1606   1.409       .  A
C1605      C1610   1.419       .  A
C1605      H1612   1.083       .  S
C1606      C1607   1.430       .  A
C1607      C1608   1.407       .  A
C1607      C1614   1.513       .  S
C1608      C1609   1.399       .  A
C1608      H1613   1.085       .  S
C1609      C1610   1.418       .  A
C1610      C1611   1.505       .  S
C1611      H1615   1.110       .  S
C1611      H1616   1.110       .  S
C1611      H1617   1.110       .  S
C1614      H1618   1.106       .  S
C1614      H1619   1.110       .  S
C1614      H1620   1.109       .  S
