geometry optimzed in LAMMPS
_audit_creation_date              2020-11-30 
_audit_creation_method            'lammps2cif' 
_symmetry_space_group_name_H-M    'P1' 
_symmetry_Int_Tables_number       1 
_symmetry_cell_setting            triclinic 
loop_ 
_symmetry_equiv_pos_as_xyz 
  x,y,z 
_cell_length_a                    18.54539275996274 
_cell_length_b                    17.653946492593125 
_cell_length_c                    18.31282576747768 
_cell_angle_alpha                 90.58063656294031 
_cell_angle_beta                  93.78130885771914 
_cell_angle_gamma                 89.55365768936736 
loop_ 
_atom_site_label 
_atom_site_type_symbol 
_atom_site_fract_x 
_atom_site_fract_y 
_atom_site_fract_z 
_atom_site_charge 
N1          N  0.09837361  0.16125120  0.00797557    -0.06750
N2          N  0.14881608  0.18551526  0.05390279    -0.58870
N3          N  0.96893599  0.12918455  0.88315384    -0.06430
N4          N  0.96958865  0.16752294  0.82304967    -0.61000
N5          N  0.96017108  0.17508046  0.93846736    -0.06030
N6          N  0.97168993  0.24467139  0.91721723    -0.58850
N7          N  0.12521890  0.11360588  0.96135389    -0.05710
N8          N  0.19326004  0.09774499  0.98113614    -0.61350
C9          C  0.20624248  0.14242009  0.04012371     0.95420
C10         C  0.98437458  0.23804185  0.84548040     0.95200
N11         N  0.95075371  0.91863415  0.84658424    -0.06940
N12         N  0.93087776  0.87271574  0.79242799    -0.59450
N13         N  0.13415160  0.95022558  0.90283530    -0.05060
N14         N  0.20029658  0.94409004  0.93451578    -0.60700
N15         N  0.10490625  0.88354571  0.89885149    -0.06970
N16         N  0.15151833  0.83102262  0.91731852    -0.59720
N17         N  0.98228400  0.97779227  0.82193726    -0.04700
N18         N  0.98783687  0.97054082  0.75153244    -0.60790
Mn19       Mn  0.05544328  0.04459639  0.89059467     1.18440
C20         C  0.96625116  0.89885814  0.73667857     0.97510
C21         C  0.21011653  0.86791279  0.94311953     0.98170
N22         N  0.88733546  0.10694319  0.07481685    -0.06990
N23         N  0.83206161  0.13243063  0.03370344    -0.63300
N24         N  0.03615973  0.02779203  0.17187689    -0.05790
N25         N  0.04025584  0.01862290  0.24319889    -0.63970
N26         N  0.03396710  0.09985024  0.15591764    -0.06490
N27         N  0.02871018  0.13889671  0.21693798    -0.63560
N28         N  0.87679529  0.03567719  0.09087032    -0.05390
N29         N  0.81634512  0.01245544  0.05572909    -0.64250
Mn30       Mn  0.99411355  0.13901500  0.04660220     1.10660
C31         C  0.78932826  0.07232573  0.01874913     0.98730
C32         C  0.02839966  0.08775738  0.27113776     0.98800
N33         N  0.04665064  0.82688343  0.05065120    -0.06500
N34         N  0.01821190  0.76313067  0.07221550    -0.61880
N35         N  0.88958060  0.87761203  0.04707832    -0.05820
N36         N  0.82176639  0.85705475  0.05398496    -0.58610
N37         N  0.90747316  0.86194038  0.98155150    -0.07130
N38         N  0.85628407  0.83232384  0.94099537    -0.61440
N39         N  0.05366628  0.87233744  0.10821728    -0.06120
N40         N  0.04593137  0.83459040  0.16810641    -0.58630
Mn41       Mn  0.00326483  0.87325800  0.94403069     1.20190
Mn42       Mn  0.96448082  0.95303565  0.10859315     1.10090
Cl43       Cl  0.00622434  0.00384400  0.99888291    -0.86600
C44         C  0.01219674  0.77159374  0.14528869     0.95730
C45         C  0.80426161  0.82762890  0.98650612     0.95530
C46         C  0.70660140  0.71863379  0.72982916    -0.03120
C47         C  0.73087447  0.73119257  0.24395194    -0.03120
C48         C  0.46988932  0.69505183  0.93250149    -0.00070
C49         C  0.47963515  0.69629503  0.01207291    -0.00070
C50         C  0.75069443  0.23843369  0.77483758    -0.03120
C51         C  0.70548779  0.95912643  0.49676726    -0.00070
C52         C  0.70385820  0.04147341  0.50194577    -0.00070
C53         C  0.77983198  0.24471528  0.26598050    -0.03120
C54         C  0.52005051  0.31977850  0.97076857    -0.00070
C55         C  0.53670060  0.31404333  0.04937557    -0.00070
C56         C  0.23173751  0.75361359  0.69102004    -0.03120
C57         C  0.94927374  0.48723741  0.67698621    -0.00070
C58         C  0.02723007  0.49104179  0.67498136    -0.00070
C59         C  0.26160917  0.27031709  0.76617770    -0.03120
C60         C  0.31582136  0.06835952  0.49856194    -0.00070
C61         C  0.31917938  0.98685729  0.48678068    -0.00070
C62         C  0.30868536  0.30092088  0.25961687    -0.03120
C63         C  0.27625497  0.76342594  0.23384997    -0.03120
C64         C  0.98324967  0.51424215  0.29960086    -0.00070
C65         C  0.06151233  0.52073684  0.29989266    -0.00070
C66         C  0.24049851  0.63739092  0.29791960    -0.09790
C67         C  0.21958083  0.70585926  0.26469878     0.06410
C68         C  0.14450668  0.72222569  0.26865271    -0.03560
C69         C  0.09221158  0.66370555  0.27343738    -0.08010
C70         C  0.11232989  0.59245729  0.30168286     0.05520
C71         C  0.18864298  0.58761545  0.32453824    -0.03030
Br72       Br  0.22476372  0.53591869  0.41058601    -0.02730
H73         H  0.29745463  0.62658649  0.31073454     0.09430
H74         H  0.03577455  0.67709761  0.26335788     0.07450
Br75       Br  0.12130291  0.80998888  0.32037223    -0.03160
C76         C  0.20706433  0.36670603  0.33583852    -0.09790
C77         C  0.24677551  0.36562834  0.27092146     0.06410
C78         C  0.21361397  0.41323401  0.21460556    -0.03560
C79         C  0.14797088  0.45312384  0.22225658    -0.08010
C80         C  0.11000051  0.45178429  0.28575666     0.05520
C81         C  0.13875739  0.40385118  0.34118490    -0.03030
Br82       Br  0.08949839  0.39547837  0.42868213    -0.02730
H83         H  0.22802009  0.33806148  0.38426719     0.09430
H84         H  0.12783135  0.49062932  0.17887698     0.07450
Br85       Br  0.24751778  0.43152954  0.12244254    -0.03160
C86         C  0.33699498  0.81131813  0.35827599    -0.09790
C87         C  0.29184603  0.82823583  0.29521294     0.06410
C88         C  0.26599719  0.90544788  0.29283407    -0.03560
C89         C  0.28763264  0.95930140  0.34743340    -0.08010
C90         C  0.32839742  0.94203354  0.41249666     0.05520
C91         C  0.35919567  0.86725660  0.41167586    -0.03030
Br92       Br  0.44333519  0.84214325  0.47276666    -0.02730
H93         H  0.36101859  0.75531142  0.36265292     0.09430
H94         H  0.26933791  0.01487647  0.33734800     0.07450
Br95       Br  0.19180139  0.94604612  0.22533214    -0.03160
C96         C  0.25435858  0.19950022  0.34369461    -0.09790
C97         C  0.31337671  0.24685005  0.33073137     0.06410
C98         C  0.37132970  0.24076907  0.38608561    -0.03560
C99         C  0.37591460  0.17743470  0.43447290    -0.08010
C100        C  0.32069749  0.12198823  0.43451228     0.05520
C101        C  0.25813020  0.13731242  0.38972940    -0.03030
Br102      Br  0.16800581  0.08703672  0.40141049    -0.02730
H103        H  0.20089025  0.21411972  0.32327838     0.09430
H104        H  0.42063007  0.17417569  0.47548300     0.07450
Br105      Br  0.44199799  0.31880583  0.40354160    -0.03160
C106        C  0.28821563  0.24272381  0.63117215    -0.09790
C107        C  0.28936054  0.21554310  0.70240144     0.06410
C108        C  0.31363650  0.13812915  0.70826121    -0.03560
C109        C  0.32467742  0.09182623  0.64417073    -0.08010
C110        C  0.30328552  0.11563764  0.57174414     0.05520
C111        C  0.27963289  0.19405743  0.57037800    -0.03030
Br112      Br  0.20873108  0.24041175  0.50438640    -0.02730
H113        H  0.27914457  0.30253737  0.62209458     0.09430
H114        H  0.34852418  0.03670115  0.65242949     0.07450
Br115      Br  0.33747821  0.09265867  0.80116771    -0.03160
C116        C  0.15558839  0.32094193  0.67803680    -0.09790
C117        C  0.21069001  0.33924155  0.73432082     0.06410
C118        C  0.19463286  0.40688979  0.77487259    -0.03560
C119        C  0.12903826  0.44735965  0.76137552    -0.08010
C120        C  0.07699877  0.42810180  0.70480655     0.05520
C121        C  0.09047648  0.36223073  0.66472794    -0.03030
Br122      Br  0.02393674  0.32837185  0.58758208    -0.02730
H123        H  0.15801866  0.26818395  0.64827675     0.09430
H124        H  0.12067441  0.49897094  0.79239994     0.07450
Br125      Br  0.25450921  0.45078882  0.85270322    -0.03160
C126        C  0.35088100  0.90124950  0.59732703    -0.09790
C127        C  0.30008143  0.92823248  0.54277744     0.06410
C128        C  0.23995716  0.88042892  0.52595332    -0.03560
C129        C  0.23130176  0.81206482  0.56267971    -0.08010
C130        C  0.27152400  0.79479523  0.62805060     0.05520
C131        C  0.33745481  0.83535687  0.63840438    -0.03030
Br132      Br  0.41984488  0.78813512  0.68430105    -0.02730
H133        H  0.40317552  0.92820328  0.60456761     0.09430
H134        H  0.18741988  0.77678840  0.54417486     0.07450
Br135      Br  0.15750102  0.91462031  0.46803518    -0.03160
C136        C  0.20106122  0.61231157  0.64294043    -0.09790
C137        C  0.17802951  0.68607309  0.65718867     0.06410
C138        C  0.09998552  0.69355920  0.64155121    -0.03560
C139        C  0.05225512  0.63389068  0.65380873    -0.08010
C140        C  0.07604915  0.55898428  0.65361224     0.05520
C141        C  0.15136185  0.55109442  0.63568131    -0.03030
Br142      Br  0.19059347  0.46643424  0.58553395    -0.02730
H143        H  0.25703134  0.60271801  0.63211511     0.09430
H144        H  0.99532752  0.64640317  0.65211681     0.07450
Br145      Br  0.05460449  0.75890401  0.56847409    -0.03160
C146        C  0.40172661  0.38960160  0.19479066    -0.09790
C147        C  0.38878702  0.32362832  0.23671369     0.06410
C148        C  0.44208973  0.26422201  0.22730473    -0.03560
C149        C  0.48899895  0.26637096  0.16958400    -0.08010
C150        C  0.48599562  0.32210483  0.11440996     0.05520
C151        C  0.44831050  0.38833296  0.13433050    -0.03030
Br152      Br  0.46413136  0.47764247  0.08127222    -0.02730
H153        H  0.37274019  0.44119362  0.20609595     0.09430
H154        H  0.52209455  0.21743360  0.16384175     0.07450
Br155      Br  0.43445411  0.16063477  0.26024458    -0.03160
C156        C  0.34112450  0.25717400  0.88918633    -0.09790
C157        C  0.32941879  0.29240270  0.81980519     0.06410
C158        C  0.38239188  0.34691588  0.80461021    -0.03560
C159        C  0.43872755  0.36612015  0.85863229    -0.08010
C160        C  0.44541672  0.33171358  0.92925855     0.05520
C161        C  0.38624267  0.28946825  0.94538457    -0.03030
Br162      Br  0.32692808  0.34784538  0.00113597    -0.02730
H163        H  0.30566754  0.21320154  0.90567813     0.09430
H164        H  0.48173478  0.40214373  0.84251128     0.07450
Br165      Br  0.38453020  0.39223679  0.71014412    -0.03160
C166        C  0.82853578  0.37343170  0.33415547    -0.09790
C167        C  0.83252526  0.31812214  0.27816360     0.06410
C168        C  0.89682289  0.32391547  0.23739424    -0.03560
C169        C  0.94943934  0.38136409  0.25044409    -0.08010
C170        C  0.94415630  0.43664950  0.30518975     0.05520
C171        C  0.88324452  0.42910299  0.34889609    -0.03030
Br172      Br  0.86671438  0.50165335  0.42446421    -0.02730
H173        H  0.78240451  0.37601767  0.36626899     0.09430
H174        H  0.99193786  0.38609453  0.21303264     0.07450
Br175      Br  0.91434304  0.25992132  0.15505340    -0.03160
C176        C  0.69488760  0.20411552  0.14772414    -0.09790
C177        C  0.73584038  0.26003141  0.18706455     0.06410
C178        C  0.71966590  0.33498416  0.15896873    -0.03560
C179        C  0.65471758  0.35158658  0.11707891    -0.08010
C180        C  0.61261191  0.29469682  0.08248344     0.05520
C181        C  0.63630376  0.21990521  0.09626347    -0.03030
Br182      Br  0.57927210  0.13669264  0.06053365    -0.02730
H183        H  0.70352835  0.14666582  0.15923016     0.09430
H184        H  0.64101486  0.41003007  0.10446919     0.07450
Br185      Br  0.79186163  0.40099801  0.12609500    -0.03160
C186        C  0.71703720  0.08369467  0.36802296    -0.09790
C187        C  0.70287935  0.10260283  0.43941857     0.06410
C188        C  0.69307688  0.18449216  0.44897710    -0.03560
C189        C  0.71422239  0.23704512  0.39467931    -0.08010
C190        C  0.72375876  0.21267000  0.32204908     0.05520
C191        C  0.70089681  0.13624289  0.31183534    -0.03030
Br192      Br  0.60891043  0.11606938  0.26407160    -0.02730
H193        H  0.73566719  0.02843675  0.35397178     0.09430
H194        H  0.71552222  0.29619029  0.40863448     0.07450
Br195      Br  0.63955474  0.23191809  0.52337345    -0.03160
C196        C  0.92002592  0.38520953  0.76835537    -0.09790
C197        C  0.90851234  0.41478282  0.69798841     0.06410
C198        C  0.84365911  0.39012954  0.65953131    -0.03560
C199        C  0.79281388  0.34387969  0.69171708    -0.08010
C200        C  0.80732629  0.30598380  0.75905372     0.05520
C201        C  0.86783960  0.33989733  0.80136797    -0.03030
Br202      Br  0.86670121  0.38046048  0.89834855    -0.02730
H203        H  0.96527396  0.40750628  0.80214550     0.09430
H204        H  0.74431326  0.32971065  0.65836014     0.07450
Br205      Br  0.83018311  0.39273075  0.55627139    -0.03160
C206        C  0.61730997  0.28194412  0.78985711    -0.09790
C207        C  0.69057217  0.28575221  0.81426164     0.06410
C208        C  0.70251138  0.31409556  0.88897209    -0.03560
C209        C  0.64553495  0.34417456  0.92664516    -0.08010
C210        C  0.57819818  0.31078262  0.91455378     0.05520
C211        C  0.56590791  0.27576073  0.84345325    -0.03030
Br212      Br  0.49538026  0.19840733  0.82298021    -0.02730
H213        H  0.60234974  0.26365059  0.73465420     0.09430
H214        H  0.65751870  0.37694281  0.97589293     0.07450
Br215      Br  0.76548329  0.26863157  0.96411045    -0.03160
C216        C  0.77737846  0.12556328  0.58765892    -0.09790
C217        C  0.71537405  0.08120375  0.57644118     0.06410
C218        C  0.66229304  0.09060293  0.62767273    -0.03560
C219        C  0.67184088  0.14371754  0.68662117    -0.08010
C220        C  0.73387328  0.19166362  0.69844602     0.05520
C221        C  0.78807735  0.17810516  0.64568153    -0.03030
Br222      Br  0.88797079  0.21052173  0.65193080    -0.02730
H223        H  0.81905740  0.11908095  0.54913728     0.09430
H224        H  0.62915007  0.14526113  0.72328569     0.07450
Br225      Br  0.57168490  0.03897895  0.61485803    -0.03160
C226        C  0.43573475  0.76952316  0.11912750    -0.09790
C227        C  0.42012571  0.71228109  0.06597342     0.06410
C228        C  0.36953430  0.65795198  0.08608511    -0.03560
C229        C  0.33908976  0.66120305  0.15601815    -0.08010
C230        C  0.34820181  0.72470195  0.20517840     0.05680
C231        C  0.40773228  0.77134343  0.18872899    -0.03030
Br232      Br  0.45293217  0.84582670  0.25333609    -0.02730
H233        H  0.47591527  0.81114845  0.10916611     0.09430
H234        H  0.29909523  0.61939638  0.16641059     0.07450
Br235      Br  0.32912535  0.58760737  0.01480580    -0.03160
C236        C  0.35864326  0.77085677  0.88030729    -0.09790
C237        C  0.39509486  0.70125690  0.88763990     0.06410
C238        C  0.37166799  0.64604694  0.83429597    -0.03560
C239        C  0.31706555  0.66058813  0.77695776    -0.08010
C240        C  0.28656466  0.73366010  0.76284080     0.05520
C241        C  0.31187016  0.78911327  0.81753175    -0.03030
Br242      Br  0.30197751  0.89580290  0.80518940    -0.02730
H243        H  0.37505084  0.81568030  0.91846185     0.09430
H244        H  0.30328276  0.61376173  0.74140352     0.07450
Br245      Br  0.41552183  0.54864142  0.83552689    -0.03160
C246        C  0.66525725  0.91407967  0.36077504    -0.09790
C247        C  0.70739278  0.90445237  0.42765767     0.06410
C248        C  0.74076601  0.83060299  0.43274526    -0.03560
C249        C  0.72481239  0.77319171  0.38065151    -0.08010
C250        C  0.70625072  0.79010142  0.30699382     0.05520
C251        C  0.67161104  0.86361911  0.29904107    -0.03030
Br252      Br  0.62887765  0.90220665  0.20931724    -0.02730
H253        H  0.63045361  0.96331884  0.35445240     0.09430
H254        H  0.73970801  0.71617926  0.39644363     0.07450
Br255      Br  0.82277694  0.80201985  0.49593390    -0.03160
C256        C  0.85841573  0.55560406  0.24516612    -0.09790
C257        C  0.92304575  0.57691903  0.28683643     0.06410
C258        C  0.91408219  0.64200562  0.33097266    -0.03560
C259        C  0.84891565  0.68593768  0.32431628    -0.08010
C260        C  0.78355266  0.66423596  0.28110099     0.05520
C261        C  0.78947377  0.58972258  0.25315134    -0.03030
Br262      Br  0.70729645  0.52639853  0.23315289    -0.02730
H263        H  0.85934936  0.50436550  0.21340433     0.09430
H264        H  0.85221532  0.74094615  0.35023973     0.07450
Br265      Br  0.98403638  0.66878220  0.40800081    -0.03160
C266        C  0.55597186  0.65100210  0.12766331    -0.09790
C267        C  0.55270082  0.69274453  0.06028627     0.06410
C268        C  0.60172113  0.75329343  0.06195817    -0.03560
C269        C  0.65832816  0.76014008  0.11716688    -0.08010
C270        C  0.66419084  0.71669070  0.18342339     0.05520
C271        C  0.60478223  0.66806130  0.18975599    -0.03030
Br272      Br  0.57711625  0.63908805  0.28471557    -0.02730
H273        H  0.51199559  0.61379590  0.13737853     0.09430
H274        H  0.69466351  0.80667784  0.11048332     0.07450
Br275      Br  0.57673919  0.84508866  0.01232932    -0.03160
C276        C  0.57762071  0.74963793  0.76543193    -0.09790
C277        C  0.62735543  0.68997707  0.75179338     0.06410
C278        C  0.61569605  0.62489336  0.79638259    -0.03560
C279        C  0.57103444  0.62835665  0.85844614    -0.08010
C280        C  0.53194036  0.69470178  0.87799363     0.05520
C281        C  0.53748587  0.75550457  0.82839701    -0.03030
Br282      Br  0.49925750  0.85528709  0.84552770    -0.02730
H283        H  0.57940943  0.80054164  0.73397196     0.09430
H284        H  0.56591155  0.57785726  0.89066767     0.07450
Br285      Br  0.66236420  0.53015919  0.77663859    -0.03160
C286        C  0.64391825  0.85907201  0.56764734    -0.09790
C287        C  0.70167168  0.91022590  0.56584755     0.06410
C288        C  0.76155665  0.89661534  0.61615976    -0.03560
C289        C  0.76276361  0.83359532  0.66469224    -0.08010
C290        C  0.70336704  0.78314246  0.66858588     0.05520
C291        C  0.64480114  0.79592834  0.61472849    -0.03030
Br292      Br  0.56589900  0.72735949  0.59289614    -0.02730
H293        H  0.59932766  0.86498624  0.52685380     0.09430
H294        H  0.81063546  0.82444647  0.70065904     0.07450
Br295      Br  0.84954028  0.95098858  0.60690493    -0.03160
C296        C  0.83994729  0.65496767  0.75468319    -0.09790
C297        C  0.77300499  0.65993373  0.70976854     0.06410
C298        C  0.77698686  0.61598252  0.64365224    -0.03560
C299        C  0.83896307  0.57019628  0.62896675    -0.08010
C300        C  0.89734110  0.55658559  0.68114090     0.05520
C301        C  0.89342256  0.59770571  0.74668435    -0.03030
Br302      Br  0.95354738  0.56746234  0.83105515    -0.02730
H303        H  0.85154175  0.69354268  0.79962473     0.09430
H304        H  0.83967714  0.54264113  0.57648866     0.07450
Br305      Br  0.70233287  0.61416926  0.56745441    -0.03160
C306        C  0.70435892  0.83820697  0.90914977    -0.09790
C307        C  0.74229923  0.78936100  0.95772460     0.06410
C308        C  0.75976368  0.71618564  0.93255916    -0.03560
C309        C  0.74029855  0.69728000  0.86206633    -0.08010
C310        C  0.72580976  0.75257487  0.80734524     0.05520
C311        C  0.70503357  0.82600167  0.83369522    -0.03030
Br312      Br  0.67410320  0.91380748  0.77744713    -0.02730
H313        H  0.69291841  0.89488477  0.92802672     0.09430
H314        H  0.74854777  0.63865112  0.84770574     0.07450
Br315      Br  0.85076911  0.66433401  0.95770689    -0.03160
C316        C  0.82285141  0.06600788  0.89470956    -0.09790
C317        C  0.76674916  0.06146781  0.94160534     0.06410
C318        C  0.69986751  0.08655635  0.91463487    -0.03560
C319        C  0.69709309  0.13890259  0.85885177    -0.08010
C320        C  0.76068412  0.16874809  0.82881571     0.05520
C321        C  0.81774810  0.11518069  0.83489756    -0.03030
Br322      Br  0.85248708  0.06565042  0.75304021    -0.02730
H323        H  0.87047283  0.03121816  0.90559363     0.09430
H324        H  0.64380653  0.15454000  0.83971463     0.07450
Br325      Br  0.61545892  0.02819941  0.92709023    -0.03160
C326        C  0.13094887  0.77814283  0.77026928    -0.09790
C327        C  0.17570211  0.80945586  0.72014856     0.06410
C328        C  0.14885424  0.87414017  0.68162392    -0.03560
C329        C  0.07576205  0.88889062  0.67452969    -0.08010
C330        C  0.02861428  0.85227314  0.71865544     0.05520
C331        C  0.05791608  0.79606453  0.76806520    -0.03030
Br332      Br  0.00699101  0.74193150  0.83870506    -0.02730
H333        H  0.15021736  0.73054571  0.80327895     0.09430
H334        H  0.05692471  0.93750199  0.64255010     0.07450
Br335      Br  0.20294709  0.96247117  0.66622136    -0.03160
C336        C  0.83429927  0.81927811  0.22565853    -0.09790
C337        C  0.79068737  0.76074871  0.19735190     0.06410
C338        C  0.81970985  0.71051232  0.14389680    -0.03560
C339        C  0.89368229  0.70988039  0.13519682    -0.08010
C340        C  0.93961832  0.76081420  0.17311887     0.05520
C341        C  0.90848381  0.81482307  0.22055724    -0.03030
Br342      Br  0.95987779  0.87282799  0.29500444    -0.02730
H343        H  0.81401752  0.85932215  0.26447934     0.09430
H344        H  0.91614108  0.66817032  0.09932034     0.07450
Br345      Br  0.76647177  0.62807861  0.09433429    -0.03160
C346        C  0.21832971  0.76469944  0.03003642    -0.09790
C347        C  0.24675757  0.83347743  0.00796409     0.06410
C348        C  0.28632828  0.87667936  0.05891211    -0.03560
C349        C  0.28668007  0.85822319  0.13226678    -0.08010
C350        C  0.24763263  0.79550654  0.15855636     0.05520
C351        C  0.21228802  0.74822306  0.10302078    -0.03030
Br352      Br  0.16181063  0.65375546  0.11326396    -0.02730
H353        H  0.19319830  0.72625404  0.98953961     0.09430
H354        H  0.32267697  0.89096121  0.16865482     0.07450
Br355      Br  0.35169020  0.95033129  0.02818278    -0.03160
C356        C  0.88562063  0.19307923  0.34504744    -0.09790
C357        C  0.83827502  0.17992340  0.28093823     0.06410
C358        C  0.84245055  0.10323582  0.25369342    -0.03560
C359        C  0.90364968  0.06064483  0.27321420    -0.08010
C360        C  0.96360595  0.09307500  0.31176831     0.05520
C361        C  0.95110234  0.15567293  0.35543081    -0.03030
Br362      Br  0.02230048  0.19759809  0.42339370    -0.02730
H363        H  0.87614719  0.23903032  0.38282801     0.09430
H364        H  0.90926692  0.00717693  0.24513843     0.07450
Br365      Br  0.77154159  0.03610960  0.20696243    -0.03160
C366        C  0.08145428  0.21813818  0.76402683    -0.09790
C367        C  0.05502416  0.26223893  0.82158774     0.06410
C368        C  0.10594058  0.29304040  0.87371814    -0.03560
C369        C  0.17885674  0.27462243  0.87012783    -0.08010
C370        C  0.20420129  0.23129133  0.81084088     0.05520
C371        C  0.15116611  0.18912640  0.77155702    -0.03030
Br372      Br  0.15226514  0.08343272  0.78426042    -0.02730
H373        H  0.04424753  0.18906897  0.72530436     0.09430
H374        H  0.21509583  0.30726131  0.90539250     0.07450
Br375      Br  0.08069516  0.36619607  0.94654535    -0.03160
C376        C  0.32296516  0.23062352  0.13333657    -0.09790
C377        C  0.28075505  0.24914597  0.19306570     0.06410
C378        C  0.21885264  0.20539514  0.19581295    -0.03560
C379        C  0.22000468  0.13129938  0.16747214    -0.08010
C380        C  0.25539329  0.12254681  0.10203900     0.05520
C381        C  0.31825097  0.16163440  0.09742191    -0.03030
Br382      Br  0.38640443  0.13434075  0.02805417    -0.02730
H383        H  0.36230821  0.26701027  0.11531836     0.09430
H384        H  0.17170684  0.09864681  0.17216382     0.07450
Br385      Br  0.12816090  0.25767812  0.20297195    -0.03160
loop_ 
_geom_bond_atom_site_label_1 
_geom_bond_atom_site_label_2 
_geom_bond_distance 
_geom_bond_site_symmetry_2 
_ccdc_geom_bond_type 
N1            N2   1.289       .  A
N1            N7   1.311   1_554  A
N1          Mn30   2.143   1_455  S
N2            C9   1.340       .  A
N3            N5   1.308       .  A
N3            N4   1.299       .  A
N3          Mn19   2.182   1_655  S
N4           C10   1.332       .  A
N5            N6   1.316       .  A
N5          Mn30   2.140   1_556  S
N6           C10   1.354       .  A
N7            N8   1.318       .  A
N7          Mn19   2.147       .  S
N8            C9   1.341   1_556  A
C9          C380   1.451       .  S
C10         C367   1.476   1_655  S
N11          N17   1.300       .  A
N11          N12   1.310       .  A
N11         Mn41   2.136   1_655  S
N12          C20   1.337       .  A
N13          N14   1.326       .  A
N13          N15   1.299       .  A
N13         Mn19   2.210   1_565  S
N14          C21   1.365       .  A
N15          N16   1.295       .  A
N15         Mn41   2.118       .  S
N16          C21   1.329       .  A
N17          N18   1.305       .  A
N17         Mn19   2.141   1_665  S
N18          C20   1.350       .  A
Mn19        Cl43   2.358       .  S
C20         C330   1.467   1_655  S
C21         C347   1.464   1_556  S
N22          N23   1.311       .  A
N22          N28   1.314       .  A
N22         Mn30   2.160       .  S
N23          C31   1.344       .  A
N24          N26   1.308       .  A
N24          N25   1.315       .  A
N24         Mn42   2.155   1_445  S
N25          C32   1.341       .  A
N26          N27   1.316       .  A
N26         Mn30   2.204   1_455  S
N27          C32   1.349       .  A
N28          N29   1.321       .  A
N28         Mn42   2.187   1_545  S
N29          C31   1.337       .  A
Mn30        Cl43   2.546   1_654  S
C31         C317   1.458   1_554  S
C32         C360   1.456   1_455  S
N33          N34   1.322       .  A
N33          N39   1.319       .  A
N33         Mn41   2.224   1_554  S
N34          C44   1.357       .  A
N35          N36   1.326       .  A
N35          N37   1.293   1_554  A
N35         Mn42   2.183       .  S
N36          C45   1.356   1_554  A
N37          N38   1.278       .  A
N37         Mn41   1.959   1_655  S
N38          C45   1.319       .  A
N39          N40   1.306       .  A
N39         Mn42   2.175   1_455  S
N40          C44   1.330       .  A
Mn41        Cl43   2.505   1_565  S
Mn42        Cl43   2.386   1_664  S
C44         C340   1.485   1_455  S
C45         C307   1.407       .  S
C46         C277   1.634       .  S
C46         C290   1.604       .  S
C46         C297   1.661       .  S
C46         C310   1.556       .  S
C47         C250   1.631       .  S
C47         C260   1.651       .  S
C47         C270   1.625       .  S
C47         C337   1.541       .  S
C48          C49   1.456   1_556  D
C48         C237   1.568       .  S
C48         C280   1.572       .  S
C49         C227   1.551       .  S
C49         C267   1.569       .  S
C50         C200   1.636       .  S
C50         C207   1.594       .  S
C50         C220   1.631       .  S
C50         C320   1.588       .  S
C51          C52   1.456   1_565  D
C51         C247   1.586       .  S
C51         C287   1.545       .  S
C52         C187   1.581       .  S
C52         C217   1.531       .  S
C53         C167   1.634       .  S
C53         C177   1.636       .  S
C53         C190   1.618       .  S
C53         C357   1.583       .  S
C54          C55   1.457   1_556  D
C54         C160   1.549       .  S
C54         C210   1.545       .  S
C55         C150   1.570       .  S
C55         C180   1.533       .  S
C56         C130   1.594       .  S
C56         C137   1.649       .  S
C56         C240   1.648       .  S
C56         C327   1.544       .  S
C57          C58   1.451   1_655  D
C57         C197   1.555       .  S
C57         C300   1.556       .  S
C58         C120   1.521       .  S
C58         C140   1.576       .  S
C59         C107   1.616       .  S
C59         C117   1.624       .  S
C59         C157   1.592       .  S
C59         C370   1.554       .  S
C60          C61   1.454   1_545  D
C60         C100   1.523       .  S
C60         C110   1.601       .  S
C61          C90   1.585       .  S
C61         C127   1.524       .  S
C62          C77   1.635       .  S
C62          C97   1.620       .  S
C62         C147   1.624       .  S
C62         C377   1.578       .  S
C63          C67   1.601       .  S
C63          C87   1.610       .  S
C63         C230   1.611       .  S
C63         C350   1.555       .  S
C64          C65   1.456   1_655  D
C64         C170   1.562       .  S
C64         C257   1.574       .  S
C65          C70   1.583       .  S
C65          C80   1.538       .  S
C66          C67   1.399       .  A
C66          C71   1.421       .  A
C66          H73   1.083       .  S
C67          C68   1.426       .  A
C68          C69   1.430       .  A
C68         Br75   1.870       .  S
C69          C70   1.403       .  A
C69          H74   1.076       .  S
C70          C71   1.451       .  A
C71         Br72   1.909       .  S
C76          C77   1.439       .  A
C76          C81   1.431       .  A
C76          H83   1.074       .  S
C77          C78   1.440       .  A
C78          C79   1.416       .  A
C78         Br85   1.871       .  S
C79          C80   1.399       .  A
C79          H84   1.085       .  S
C80          C81   1.403       .  A
C81         Br82   1.904       .  S
C86          C87   1.414       .  A
C86          C91   1.426       .  A
C86          H93   1.083       .  S
C87          C88   1.442       .  A
C88          C89   1.414       .  A
C88         Br95   1.927       .  S
C89          C90   1.403       .  A
C89          H94   1.050   1_565  S
C90          C91   1.435       .  A
C91         Br92   1.911       .  S
C96          C97   1.416       .  A
C96         C101   1.389       .  A
C96         H103   1.067       .  S
C97          C98   1.432       .  A
C98          C99   1.432       .  A
C98        Br105   1.919       .  S
C99         C100   1.422       .  A
C99         H104   1.083       .  S
C100        C101   1.402       .  A
C101       Br102   1.924       .  S
C106        C107   1.393       .  A
C106        C111   1.401       .  A
C106        H113   1.081       .  S
C107        C108   1.438       .  A
C108        C109   1.448       .  A
C108       Br115   1.912       .  S
C109        C110   1.426       .  A
C109        H114   1.074       .  S
C110        C111   1.449       .  A
C111       Br112   1.911       .  S
C116        C117   1.439       .  A
C116        C121   1.414       .  A
C116        H123   1.076       .  S
C117        C118   1.439       .  A
C118        C119   1.415       .  A
C118       Br125   1.910       .  S
C119        C120   1.409       .  A
C119        H124   1.084       .  S
C120        C121   1.399       .  A
C121       Br122   1.908       .  S
C126        C127   1.411       .  A
C126        C131   1.424       .  A
C126        H133   1.083       .  S
C127        C128   1.419       .  A
C128        C129   1.403       .  A
C128       Br135   1.901       .  S
C129        C130   1.403       .  A
C129        H134   1.064       .  S
C130        C131   1.423       .  A
C131       Br132   1.887       .  S
C136        C137   1.395       .  A
C136        C141   1.425       .  A
C136        H143   1.081       .  S
C137        C138   1.462       .  A
C138        C139   1.410       .  A
C138       Br145   1.923       .  S
C139        C140   1.391       .  A
C139        H144   1.075   1_455  S
C140        C141   1.461       .  A
C141       Br142   1.910       .  S
C146        C147   1.432       .  A
C146        C151   1.448       .  A
C146        H153   1.079       .  S
C147        C148   1.452       .  A
C148        C149   1.414       .  A
C148       Br155   1.941       .  S
C149        C150   1.416       .  A
C149        H154   1.064       .  S
C150        C151   1.414       .  A
C151       Br152   1.895       .  S
C156        C157   1.423       .  A
C156        C161   1.402       .  A
C156        H163   1.079       .  S
C157        C158   1.423       .  A
C158        C159   1.431       .  A
C158       Br165   1.916       .  S
C159        C160   1.432       .  A
C159        H164   1.082       .  S
C160        C161   1.381       .  A
C161       Br162   1.850   1_556  S
C166        C167   1.414       .  A
C166        C171   1.429       .  A
C166        H173   1.070       .  S
C167        C168   1.453       .  A
C168        C169   1.420       .  A
C168       Br175   1.918       .  S
C169        C170   1.400       .  A
C169        H174   1.082       .  S
C170        C171   1.435       .  A
C171       Br172   1.914       .  S
C176        C177   1.413       .  A
C176        C181   1.418       .  A
C176        H183   1.047       .  S
C177        C178   1.447       .  A
C178        C179   1.415       .  A
C178       Br185   1.913       .  S
C179        C180   1.398       .  A
C179        H184   1.084       .  S
C180        C181   1.408       .  A
C181       Br182   1.902       .  S
C186        C187   1.387       .  A
C186        C191   1.408       .  A
C186        H193   1.067       .  S
C187        C188   1.466       .  A
C188        C189   1.442       .  A
C188       Br195   1.920       .  S
C189        C190   1.416       .  A
C189        H194   1.073       .  S
C190        C191   1.424       .  A
C191       Br192   1.900       .  S
C196        C197   1.398       .  A
C196        C201   1.429       .  A
C196        H203   1.083       .  S
C197        C198   1.422       .  A
C198        C199   1.414       .  A
C198       Br205   1.892       .  S
C199        C200   1.418       .  A
C199        H204   1.083       .  S
C200        C201   1.451       .  A
C201       Br202   1.910       .  S
C206        C207   1.404       .  A
C206        C211   1.418       .  A
C206        H213   1.078       .  S
C207        C208   1.456       .  A
C208        C209   1.398       .  A
C208       Br215   1.923       .  S
C209        C210   1.389       .  A
C209        H214   1.078       .  S
C210        C211   1.441       .  A
C211       Br212   1.915       .  S
C216        C217   1.399       .  A
C216        C221   1.408       .  A
C216        H223   1.085       .  S
C217        C218   1.412       .  A
C218        C219   1.426       .  A
C218       Br225   1.917       .  S
C219        C220   1.437       .  A
C219        H224   1.071       .  S
C220        C221   1.456       .  A
C221       Br222   1.939       .  S
C226        C227   1.414       .  A
C226        C231   1.408       .  A
C226        H233   1.076       .  S
C227        C228   1.415       .  A
C228        C229   1.434       .  A
C228       Br235   1.913       .  S
C229        C230   1.435       .  A
C229        H234   1.078       .  S
C230        C231   1.432       .  A
C231       Br232   1.920       .  S
C236        C237   1.401       .  A
C236        C241   1.432       .  A
C236        H243   1.082       .  S
C237        C238   1.423       .  A
C238        C239   1.434       .  A
C238       Br245   1.896       .  S
C239        C240   1.424       .  A
C239        H244   1.069       .  S
C240        C241   1.452       .  A
C241       Br242   1.905       .  S
C246        C247   1.420       .  A
C246        C251   1.443       .  A
C246        H253   1.081       .  S
C247        C248   1.440       .  A
C248        C249   1.405       .  A
C248       Br255   1.917       .  S
C249        C250   1.404       .  A
C249        H254   1.079       .  S
C250        C251   1.448       .  A
C251       Br252   1.906       .  S
C256        C257   1.429       .  A
C256        C261   1.425       .  A
C256        H263   1.071       .  S
C257        C258   1.413       .  A
C258        C259   1.430       .  A
C258       Br265   1.911       .  S
C259        C260   1.455       .  A
C259        H264   1.077       .  S
C260        C261   1.413       .  A
C261       Br262   1.911       .  S
C266        C267   1.441       .  A
C266        C271   1.437       .  A
C266        H273   1.076       .  S
C267        C268   1.407       .  A
C268        C269   1.414       .  A
C268       Br275   1.905       .  S
C269        C270   1.440       .  A
C269        H274   1.080       .  S
C270        C271   1.413       .  A
C271       Br272   1.921       .  S
C276        C277   1.426       .  A
C276        C281   1.416       .  A
C276        H283   1.074       .  S
C277        C278   1.442       .  A
C278        C279   1.450       .  A
C278       Br285   1.919       .  S
C279        C280   1.428       .  A
C279        H284   1.082       .  S
C280        C281   1.422       .  A
C281       Br282   1.924       .  S
C286        C287   1.409       .  A
C286        C291   1.415       .  A
C286        H293   1.082       .  S
C287        C288   1.416       .  A
C288        C289   1.430       .  A
C288       Br295   1.917       .  S
C289        C290   1.428       .  A
C289        H294   1.082       .  S
C290        C291   1.436       .  A
C291       Br292   1.925       .  S
C296        C297   1.446       .  A
C296        C301   1.424       .  A
C296        H303   1.075       .  S
C297        C298   1.437       .  A
C298        C299   1.438       .  A
C298       Br305   1.900       .  S
C299        C300   1.417       .  A
C299        H304   1.074       .  S
C300        C301   1.402       .  A
C301       Br302   1.922       .  S
C306        C307   1.398       .  A
C306        C311   1.397       .  A
C306        H313   1.079       .  S
C307        C308   1.410       .  A
C308        C309   1.356       .  A
C308       Br315   1.944       .  S
C309        C310   1.418       .  A
C309        H314   1.078       .  S
C310        C311   1.437       .  A
C311       Br312   1.932       .  S
C316        C317   1.395       .  A
C316        C321   1.402       .  A
C316        H323   1.081       .  S
C317        C318   1.376       .  A
C318        C319   1.383       .  A
C318       Br325   1.908       .  S
C319        C320   1.439       .  A
C319        H324   1.062       .  S
C320        C321   1.413       .  A
C321       Br322   1.876       .  S
C326        C327   1.398       .  A
C326        C331   1.387       .  A
C326        H333   1.085       .  S
C327        C328   1.418       .  A
C328        C329   1.376       .  A
C328       Br335   1.894       .  S
C329        C330   1.396       .  A
C329        H334   1.086       .  S
C330        C331   1.430       .  A
C331       Br332   1.918       .  S
C336        C337   1.392       .  A
C336        C341   1.387       .  A
C336        H343   1.081       .  S
C337        C338   1.442       .  A
C338        C339   1.391       .  A
C338       Br345   1.948       .  S
C339        C340   1.392       .  A
C339        H344   1.081       .  S
C340        C341   1.428       .  A
C341       Br342   1.906       .  S
C346        C347   1.401       .  A
C346        C351   1.383       .  A
C346        H353   1.085   1_554  S
C347        C348   1.376       .  A
C348        C349   1.385       .  A
C348       Br355   1.899       .  S
C349        C350   1.432       .  A
C349        H354   1.079       .  S
C350        C351   1.437       .  A
C351       Br352   1.936       .  S
C356        C357   1.437       .  A
C356        C361   1.381       .  A
C356        H363   1.082       .  S
C357        C358   1.441       .  A
C358        C359   1.386       .  A
C358       Br365   1.929       .  S
C359        C360   1.400       .  A
C359        H364   1.078       .  S
C360        C361   1.385       .  A
C361       Br362   1.903   1_655  S
C366        C367   1.415       .  A
C366        C371   1.386       .  A
C366        H373   1.084       .  S
C367        C368   1.406       .  A
C368        C369   1.394       .  A
C368       Br375   1.925       .  S
C369        C370   1.425       .  A
C369        H374   1.069       .  S
C370        C371   1.395       .  A
C371       Br372   1.882       .  S
C376        C377   1.421       .  A
C376        C381   1.379       .  A
C376        H383   1.047       .  S
C377        C378   1.393       .  A
C378        C379   1.403       .  A
C378       Br385   1.924       .  S
C379        C380   1.410       .  A
C379        H384   1.078       .  S
C380        C381   1.367       .  A
C381       Br382   1.906       .  S
