geometry optimzed in LAMMPS
_audit_creation_date              2020-12-01 
_audit_creation_method            'lammps2cif' 
_symmetry_space_group_name_H-M    'P1' 
_symmetry_Int_Tables_number       1 
_symmetry_cell_setting            triclinic 
loop_ 
_symmetry_equiv_pos_as_xyz 
  x,y,z 
_cell_length_a                    42.10511415 
_cell_length_b                    41.353858752817146 
_cell_length_c                    41.26703219969841 
_cell_angle_alpha                 90.25608426605021 
_cell_angle_beta                  89.4996782660929 
_cell_angle_gamma                 89.6139409432279 
loop_ 
_atom_site_label 
_atom_site_type_symbol 
_atom_site_fract_x 
_atom_site_fract_y 
_atom_site_fract_z 
_atom_site_charge 
O1          O  0.46878855  0.71530154  0.62543128    -0.57000
C2          C  0.52844912  0.67703876  0.69659404     0.75600
O3          O  0.56176690  0.76184281  0.64951882    -0.58200
C4          C  0.47436109  0.73556042  0.60315469     0.75600
C5          C  0.48715966  0.76815946  0.71958390     0.78000
Cd6        Cd  0.51065790  0.73453786  0.66238769     1.37500
O7          O  0.50544877  0.67645745  0.67691202    -0.57000
O8          O  0.47297639  0.74426722  0.70724320    -0.55800
C9          C  0.57248402  0.73834782  0.63258725     0.78000
O10         O  0.50898912  0.78046939  0.70224629    -0.58200
O11         O  0.54207516  0.70390876  0.70021068    -0.56600
O12         O  0.49322395  0.75822761  0.61023242    -0.56600
O13         O  0.55430100  0.71437532  0.62926553    -0.55800
O14         O  0.80112629  0.73047221  0.61686255    -0.57000
C15         C  0.74329537  0.63879624  0.62923238     0.75600
O16         O  0.71263285  0.70502664  0.56655630    -0.58200
C17         C  0.79820284  0.75228680  0.59540274     0.75600
C18         C  0.80078328  0.64449583  0.55599524     0.78000
Cd19       Cd  0.76487806  0.69166077  0.59039666     1.37500
O20         O  0.76159330  0.66007398  0.64140895    -0.57000
O21         O  0.81031632  0.65671538  0.58237475    -0.55800
C22         C  0.70184051  0.71686722  0.59307449     0.78000
O23         O  0.77838387  0.65946179  0.54163900    -0.58200
O24         O  0.73545120  0.64281985  0.60002164    -0.56600
O25         O  0.78199551  0.74499601  0.57063853    -0.56600
O26         O  0.72085658  0.71842760  0.61666600    -0.55800
O27         O  0.67235265  0.52154090  0.80192182    -0.57000
C28         C  0.59474270  0.56682246  0.74549066     0.75600
O29         O  0.66600198  0.51846659  0.70000503    -0.58200
C30         C  0.69327943  0.50123009  0.79224878     0.75600
C31         C  0.58308695  0.47332364  0.75982770     0.78000
Cd32       Cd  0.63778077  0.51462006  0.75384836     1.37500
O33         O  0.60960261  0.56394027  0.77213949    -0.57000
O34         O  0.59321744  0.49054706  0.78308143    -0.55800
C35         C  0.67858914  0.54533647  0.70811828     0.78000
O36         O  0.60179063  0.47009809  0.73550363    -0.58200
O37         O  0.59999782  0.54557845  0.72386572    -0.56600
O38         O  0.68544227  0.48325314  0.76855500    -0.56600
O39         O  0.67134275  0.55653592  0.73577963    -0.55800
O40         O  0.67380120  0.72222673  0.07388723    -0.57000
C41         C  0.65318338  0.67463946  0.00148769     0.75600
O42         O  0.75276918  0.72212335  0.03532386    -0.58200
C43         C  0.69592568  0.73244789  0.09183175     0.75600
C44         C  0.72645208  0.61582778  0.04718883     0.78000
Cd45       Cd  0.70747172  0.68390745  0.04172633     1.37500
O46         O  0.65028262  0.67393410  0.03212440    -0.57000
O47         O  0.70673436  0.62861549  0.06684672    -0.55800
C48         C  0.74383806  0.73196635  0.00779844     0.78000
O49         O  0.74064193  0.63538978  0.02861471    -0.58200
O50         O  0.68079353  0.67975213  0.99039819    -0.56600
O51         O  0.72172157  0.71646542  0.09034383    -0.56600
O52         O  0.72176296  0.71612422  0.99467887    -0.55800
O53         O  0.72047948  0.94456188  0.96717637    -0.57000
C54         C  0.76501197  0.85923526  0.95664513     0.75600
O55         O  0.70616342  0.92295360  0.89341725    -0.58200
C56         C  0.70999219  0.96667489  0.94863440     0.75600
C57         C  0.82024770  0.94326320  0.91050668     0.78000
Cd58       Cd  0.75601816  0.92040016  0.92531934     1.37500
O59         O  0.76098896  0.88440717  0.97421277    -0.57000
O60         O  0.80893401  0.94256146  0.93901083    -0.55800
C61         C  0.70435141  0.89269412  0.88961630     0.78000
O62         O  0.80100423  0.93578348  0.88812830    -0.58200
O63         O  0.76687868  0.86360793  0.92639059    -0.56600
O64         O  0.72506657  0.97075116  0.92224107    -0.56600
O65         O  0.72986167  0.87698935  0.89390664    -0.55800
O66         O  0.53676000  0.78855211  0.97554287    -0.57000
C67         C  0.58792713  0.82035768  0.90390770     0.75600
O68         O  0.52990325  0.72413647  0.93477833    -0.58200
C69         C  0.50820290  0.78277142  0.98316980     0.75600
C70         C  0.49696663  0.78622332  0.85609489     0.78000
Cd71       Cd  0.53202447  0.78068404  0.91622481     1.37500
O72         O  0.56221280  0.83320429  0.91423483    -0.57000
O73         O  0.50386273  0.81112885  0.87248923    -0.55800
C74         C  0.55772298  0.71767502  0.92481388     0.78000
O75         O  0.50239318  0.75933272  0.86950814    -0.58200
O76         O  0.58752069  0.78996403  0.90059597    -0.56600
O77         O  0.48911450  0.78108860  0.95958616    -0.56600
O78         O  0.57069122  0.73830795  0.90653951    -0.55800
O79         O  0.01030980  0.97022560  0.81207102    -0.57000
C80         C  0.00672005  0.87126270  0.87536109     0.75600
O81         O  0.07689841  0.92884481  0.86847433    -0.58200
C82         C  0.00713665  0.94656615  0.79271691     0.75600
C83         C  0.95546103  0.95553111  0.88141157     0.78000
Cd84       Cd  0.01950393  0.93679139  0.85987891     1.37500
O85         O  0.01814991  0.87878520  0.84792210    -0.57000
O86         O  0.97670040  0.94954015  0.90231632    -0.55800
C87         C  0.08414447  0.95728760  0.87667934     0.78000
O88         O  0.96535453  0.95760326  0.85257511    -0.58200
O89         O  0.00586828  0.89335954  0.89673764    -0.56600
O90         O  0.01497340  0.91896932  0.80336010    -0.56600
O91         O  0.06107153  0.97716491  0.87854432    -0.55800
O92         O  0.82579466  0.75606108  0.90845826    -0.57000
C93         C  0.82337795  0.81369004  0.82621768     0.75600
O94         O  0.90876763  0.75751122  0.84952774    -0.58200
C95         C  0.82607972  0.72601248  0.91347231     0.75600
C96         C  0.86052566  0.71762956  0.79569991     0.78000
Cd97       Cd  0.85008607  0.75518401  0.85398053     1.37500
O98         O  0.80745878  0.78775921  0.82643465    -0.57000
O99         O  0.83337094  0.72957878  0.80232322    -0.55800
C100        C  0.91161457  0.77768165  0.87245537     0.78000
O101        O  0.88126770  0.71989744  0.81764097    -0.58200
O102        O  0.84952785  0.81271867  0.84088583    -0.56600
O103        O  0.83374355  0.70847930  0.88936850    -0.56600
O104        O  0.88643392  0.78525289  0.88758850    -0.55800
O105        O  0.85580581  0.97837982  0.63077833    -0.57000
C106        C  0.82053382  0.91274114  0.73200888     0.75600
O107        O  0.88850052  0.96681545  0.70257606    -0.58200
C108        C  0.83532725  0.99859628  0.64102333     0.75600
C109        C  0.83937026  0.88002888  0.63298622     0.78000
Cd110      Cd  0.84858143  0.93735443  0.67269226     1.37500
O111        O  0.84286611  0.93291518  0.73191692    -0.57000
O112        O  0.86609668  0.88659513  0.64524477    -0.55800
C113        C  0.91148418  0.94767192  0.69724477     0.78000
O114        O  0.81807461  0.90169864  0.63600788    -0.58200
O115        O  0.80754560  0.90785231  0.70493388    -0.56600
O116        O  0.81839304  0.98940546  0.66478179    -0.56600
O117        O  0.90608654  0.92412575  0.67826672    -0.55800
O118        O  0.17268372  0.47609438  0.08279031    -0.57000
C119        C  0.17091501  0.38542098  0.02181641     0.75600
O120        O  0.23241489  0.45965317  0.00002620    -0.58200
C121        C  0.19452188  0.49704621  0.08551001     0.75600
C122        C  0.25001260  0.39001217  0.07404540     0.78000
Cd123      Cd  0.20617779  0.43768619  0.04929486     1.37500
O124        O  0.15972624  0.39978641  0.04690983    -0.57000
O125        O  0.22307782  0.39466047  0.08743943    -0.55800
C126        C  0.20643429  0.47081224  0.98900156     0.78000
O127        O  0.25866982  0.41128982  0.05371414    -0.58200
O128        O  0.19585856  0.39709624  0.00949577    -0.56600
O129        O  0.22203912  0.48796475  0.07633188    -0.56600
O130        O  0.18194139  0.46766179  0.00663396    -0.55800
O131        O  0.10893825  0.42639744  0.83581943    -0.57000
C132        C  0.16777212  0.48001879  0.86018861     0.75600
O133        O  0.18300922  0.49451365  0.77815014    -0.58200
C134        C  0.11313896  0.40128807  0.81866393     0.75600
C135        C  0.07848018  0.49395955  0.78155380     0.78000
Cd136      Cd  0.13786647  0.46370038  0.80009489     1.37500
O137        O  0.17431335  0.45455045  0.84439365    -0.57000
O138        O  0.09702204  0.50672928  0.80183391    -0.55800
C139        C  0.19682851  0.47074417  0.76457047     0.78000
O140        O  0.08980845  0.47024991  0.76557471    -0.58200
O141        O  0.14630810  0.49814876  0.84864440    -0.56600
O142        O  0.12879935  0.40496323  0.79257073    -0.56600
O143        O  0.18031339  0.44545225  0.76113874    -0.55800
O144        O  0.11066481  0.18461380  0.88360371    -0.57000
C145        C  0.11543823  0.27411463  0.95837843     0.75600
O146        O  0.05732190  0.27085014  0.89142721    -0.58200
C147        C  0.08639568  0.18194596  0.86544558     0.75600
C148        C  0.06123022  0.19707984  0.97622583     0.78000
Cd149      Cd  0.08540154  0.22679561  0.91906877     1.37500
O150        O  0.13216120  0.25156126  0.94516079    -0.57000
O151        O  0.08847568  0.18971111  0.96475904    -0.55800
C152        C  0.08259258  0.27965370  0.87656516     0.78000
O153        O  0.04347484  0.21484704  0.95868021    -0.58200
O154        O  0.08570393  0.27325817  0.95387975    -0.56600
O155        O  0.06140068  0.19709123  0.87437394    -0.56600
O156        O  0.10750109  0.26257989  0.88026842    -0.55800
O157        O  0.37454318  0.36783354  0.72549197    -0.57000
C158        C  0.44922810  0.43583321  0.75810393     0.75600
O159        O  0.34285602  0.44103796  0.78868243    -0.58200
C160        C  0.35804573  0.34954267  0.74375972     0.75600
C161        C  0.41594452  0.36717139  0.81880607     0.78000
Cd162      Cd  0.38783737  0.40583573  0.76943146     1.37500
O163        O  0.43834224  0.41519557  0.73821977    -0.57000
O164        O  0.39855781  0.39107632  0.82764068    -0.55800
C165        C  0.33074743  0.44449106  0.76070524     0.78000
O166        O  0.41855172  0.36167497  0.78878102    -0.58200
O167        O  0.42972319  0.44602872  0.77947468    -0.56600
O168        O  0.35501946  0.35806940  0.77316138    -0.56600
O169        O  0.34720244  0.43398231  0.73699768    -0.55800
O170        O  0.56462541  0.24438196  0.81062665    -0.57000
C171        C  0.49952256  0.26911722  0.86112756     0.75600
O172        O  0.53149265  0.16738092  0.82059137    -0.58200
C173        C  0.57962966  0.22114312  0.79732312     0.75600
C174        C  0.56788908  0.20180782  0.92309716     0.78000
Cd175      Cd  0.54203666  0.21362697  0.85693291     1.37500
O176        O  0.52924567  0.27255430  0.85739250    -0.57000
O177        O  0.57469495  0.22648992  0.90648935    -0.55800
C178        C  0.50159531  0.17071439  0.82130967     0.78000
O179        O  0.55115873  0.18100426  0.90856546    -0.58200
O180        O  0.49003687  0.24035519  0.86481236    -0.56600
O181        O  0.58191997  0.19574945  0.81429020    -0.56600
O182        O  0.49042833  0.18913396  0.84333290    -0.55800
O183        O  0.41332837  0.22482069  0.64704129    -0.57000
C184        C  0.41951890  0.15860872  0.71243179     0.75600
O185        O  0.33367463  0.21729381  0.66356260    -0.58200
C186        C  0.39529659  0.23630803  0.62541237     0.75600
C187        C  0.35386805  0.11589622  0.63317550     0.78000
Cd188      Cd  0.37757141  0.17767441  0.66065227     1.37500
O189        O  0.43072363  0.16412748  0.68423389    -0.57000
O190        O  0.38080510  0.12703780  0.62501592    -0.55800
C191        C  0.33883294  0.22435748  0.69292267     0.78000
O192        O  0.33748699  0.13416827  0.65167541    -0.58200
O193        O  0.38959074  0.15989798  0.71528789    -0.56600
O194        O  0.37399032  0.21723873  0.61542818    -0.56600
O195        O  0.35525756  0.20427055  0.70878554    -0.55800
O196        O  0.32977363  0.02938247  0.87198689    -0.57000
C197        C  0.26818457  0.04575003  0.80236757     0.75600
O198        O  0.31869587  0.97402427  0.81462756    -0.58200
C199        C  0.33909363  0.00923849  0.89283517     0.75600
C200        C  0.21876846  0.98702932  0.87865419     0.78000
Cd201      Cd  0.28268359  0.99972265  0.85330435     1.37500
O202        O  0.26610012  0.05418025  0.83193242    -0.57000
O203        O  0.22938959  0.01559566  0.87678140    -0.55800
C204        C  0.30302373  0.94834703  0.81104317     0.78000
O205        O  0.23882543  0.96475760  0.87285776    -0.58200
O206        O  0.27776649  0.01720035  0.79712842    -0.56600
O207        O  0.31992135  0.98662738  0.89919613    -0.56600
O208        O  0.27875343  0.94522744  0.82907478    -0.55800
O209        O  0.28019840  0.97616973  0.61388405    -0.57000
C210        C  0.30631327  0.90023153  0.68613301     0.75600
O211        O  0.22772540  0.92848040  0.61524510    -0.58200
C212        C  0.30913213  0.98339573  0.61075098     0.75600
C213        C  0.28226533  0.85679408  0.58529765     0.78000
Cd214      Cd  0.28489727  0.91692302  0.62301354     1.37500
O215        O  0.32525270  0.91347158  0.66618719    -0.57000
O216        O  0.30438774  0.86268797  0.60497357    -0.55800
C217        C  0.22173222  0.93154123  0.64531650     0.78000
O218        O  0.26483129  0.88080516  0.57827931    -0.58200
O219        O  0.27994116  0.89128911  0.67502682    -0.56600
O220        O  0.32784757  0.95924705  0.60831115    -0.56600
O221        O  0.24447735  0.92608322  0.66431207    -0.55800
O222        O  0.10876930  0.13718816  0.71601988    -0.57000
C223        C  0.13371763  0.02344011  0.67873765     0.75600
O224        O  0.18655343  0.07563174  0.68594962    -0.58200
C225        C  0.10122400  0.11932074  0.73979755     0.75600
C226        C  0.10570456  0.10268637  0.61696658     0.78000
Cd227      Cd  0.13090301  0.09227291  0.68177275     1.37500
O228        O  0.13573597  0.04120971  0.65406559    -0.57000
O229        O  0.13310414  0.11301967  0.62427577    -0.55800
C230        C  0.19530772  0.09932959  0.70292402     0.78000
O231        O  0.08874946  0.09330961  0.64064777    -0.58200
O232        O  0.12616622  0.03718891  0.70524245    -0.56600
O233        O  0.10258839  0.08909514  0.73466805    -0.56600
O234        O  0.17670732  0.12349233  0.70366713    -0.55800
O235        O  0.48837588  0.03549015  0.93016523    -0.57000
C236        C  0.53081067  0.03378915  0.04466451     0.75600
O237        O  0.51174501  0.09745550  0.00633165    -0.58200
C238        C  0.46649132  0.02067106  0.94510231     0.75600
C239        C  0.58327457  0.02218458  0.95782094     0.78000
Cd240      Cd  0.52141439  0.04616321  0.97758583     1.37500
O241        O  0.55251231  0.04266962  0.02543971    -0.57000
O242        O  0.57604097  0.05170949  0.95333070    -0.55800
C243        C  0.49866457  0.11231892  0.98333199     0.78000
O244        O  0.56074247  0.00387398  0.96637366    -0.58200
O245        O  0.50388838  0.02783517  0.03239862    -0.56600
O246        O  0.47219929  0.01333928  0.97432157    -0.56600
O247        O  0.50108682  0.09908681  0.95570080    -0.55800
O248        O  0.63350065  0.16741839  0.16342738    -0.57000
C249        C  0.56392588  0.11356569  0.13409403     0.75600
O250        O  0.54584057  0.22599813  0.14277742    -0.58200
C251        C  0.62622895  0.18390147  0.18833296     0.75600
C252        C  0.59150854  0.19101554  0.06247437     0.78000
Cd253      Cd  0.58329381  0.17964907  0.13327064     1.37500
O254        O  0.59302542  0.12113773  0.13461362    -0.57000
O255        O  0.59401139  0.16368306  0.07568044    -0.55800
C256        C  0.52368137  0.20765933  0.15259075     0.78000
O257        O  0.58894166  0.21458786  0.08214713    -0.58200
O258        O  0.54415926  0.13666952  0.13572555    -0.56600
O259        O  0.60247378  0.20243343  0.18534753    -0.56600
O260        O  0.53020379  0.17785695  0.15443171    -0.55800
O261        O  0.32891516  0.25375893  0.05832840    -0.57000
C262        C  0.40017791  0.18653792  0.03992162     0.75600
O263        O  0.37810873  0.19490313  0.13510198    -0.58200
C264        C  0.31148976  0.26354888  0.08164674     0.75600
C265        C  0.31337273  0.14264680  0.08974338     0.78000
Cd266      Cd  0.34851059  0.20347922  0.08448131     1.37500
O267        O  0.37443375  0.19787444  0.02857055    -0.57000
O268        O  0.32115551  0.15460313  0.06262425    -0.55800
C269        C  0.39489689  0.22006789  0.13188210     0.78000
O270        O  0.31877519  0.16029859  0.11425691    -0.58200
O271        O  0.40090259  0.18295510  0.07023335    -0.56600
O272        O  0.30855408  0.24405989  0.10505073    -0.56600
O273        O  0.38694794  0.23919224  0.10953398    -0.55800
O274        O  0.83520963  0.52418414  0.85690815    -0.57000
C275        C  0.90814420  0.54411302  0.91162599     0.75600
O276        O  0.89656493  0.47080493  0.90445869    -0.58200
C277        C  0.82607533  0.50740798  0.83302992     0.75600
C278        C  0.94782453  0.50910545  0.81384044     0.78000
Cd279      Cd  0.89244752  0.50381517  0.85648259     1.37500
O280        O  0.89180106  0.55553638  0.88846479    -0.57000
O281        O  0.93271259  0.53390626  0.82359808    -0.55800
C282        C  0.88672075  0.44482468  0.89218311     0.78000
O283        O  0.93565397  0.48220053  0.82102401    -0.58200
O284        O  0.91798155  0.51534317  0.90806846    -0.56600
O285        O  0.84787105  0.49166684  0.81862698    -0.56600
O286        O  0.88242051  0.44477562  0.86187933    -0.55800
O287        O  0.81769251  0.63958703  0.04735025    -0.57000
C288        C  0.83663171  0.56756139  0.10651185     0.75600
O289        O  0.89637879  0.63807495  0.03905923    -0.58200
C290        C  0.82799600  0.66728788  0.03949941     0.75600
C291        C  0.88382326  0.65519780  0.14802492     0.78000
Cd292      Cd  0.86126387  0.62925046  0.08691305     1.37500
O293        O  0.81771783  0.59160366  0.10424207    -0.57000
O294        O  0.85508430  0.65899716  0.13993448    -0.55800
C295        C  0.90167595  0.60828372  0.03426287     0.78000
O296        O  0.90222772  0.64327026  0.12659798    -0.58200
O297        O  0.86556863  0.57310355  0.10067473    -0.56600
O298        O  0.84912251  0.67910969  0.05766972    -0.56600
O299        O  0.89352365  0.58954335  0.05689939    -0.55800
O300        O  0.76635387  0.46485674  0.01381679    -0.57000
C301        C  0.81416732  0.39812081  0.99019788     0.75600
O302        O  0.81239626  0.42474510  0.07232970    -0.58200
C303        C  0.74314449  0.47622073  0.02992697     0.75600
C304        C  0.73606577  0.34894849  0.04044967     0.78000
Cd305      Cd  0.76732039  0.41092450  0.03867070     1.37500
O306        O  0.78576137  0.40557184  0.98327138    -0.57000
O307        O  0.73311944  0.36742317  0.01628329    -0.55800
C308        C  0.79507329  0.43978618  0.09280981     0.78000
O309        O  0.75033351  0.36042965  0.06476333    -0.58200
O310        O  0.82066978  0.39514645  0.02000722    -0.56600
O311        O  0.72686598  0.45559062  0.04544445    -0.56600
O312        O  0.76575904  0.43300017  0.09321001    -0.55800
O313        O  0.47149384  0.72446316  0.21735973    -0.57000
C314        C  0.44712476  0.83783396  0.17119020     0.75600
O315        O  0.39914138  0.78807923  0.20144720    -0.58200
C316        C  0.47858373  0.74201693  0.24150863     0.75600
C317        C  0.47398714  0.75715882  0.11824532     0.78000
Cd318      Cd  0.45125733  0.76992897  0.18359957     1.37500
O319        O  0.43677755  0.81602773  0.15270298    -0.57000
O320        O  0.44586899  0.75023591  0.12699079    -0.55800
C321        C  0.38774361  0.76080711  0.20827521     0.78000
O322        O  0.49299627  0.76410984  0.14095401    -0.58200
O323        O  0.46218707  0.82857598  0.19613574    -0.56600
O324        O  0.47885857  0.77230393  0.23650833    -0.56600
O325        O  0.40411965  0.73634363  0.19973281    -0.55800
O326        O  0.24638819  0.80475961  0.38717284    -0.57000
C327        C  0.30771442  0.79080463  0.31201117     0.75600
O328        O  0.31224433  0.88150266  0.34219211    -0.58200
C329        C  0.23729350  0.82715167  0.40623451     0.75600
C330        C  0.35575056  0.83495271  0.40337874     0.78000
Cd331      Cd  0.29573488  0.83141441  0.36872241     1.37500
O332        O  0.30793264  0.77820371  0.34003133    -0.57000
O333        O  0.34600129  0.80840179  0.39186160    -0.55800
C334        C  0.28539886  0.88771854  0.32998410     0.78000
O335        O  0.33655500  0.85851706  0.40145075    -0.58200
O336        O  0.29962194  0.82018519  0.31093269    -0.56600
O337        O  0.25721724  0.84921362  0.41159736    -0.56600
O338        O  0.26287584  0.86931197  0.33813854    -0.55800
O339        O  0.29077849  0.88295221  0.13779121    -0.57000
C340        C  0.27905008  0.94684596  0.20844395     0.75600
O341        O  0.34290224  0.94348067  0.16617928    -0.58200
C342        C  0.26283493  0.87825321  0.12814399     0.75600
C343        C  0.28366167  0.00775872  0.11358200     0.78000
Cd344      Cd  0.29139430  0.94274658  0.14052990     1.37500
O345        O  0.25625219  0.94133510  0.18934118    -0.57000
O346        O  0.26955483  0.99845576  0.13898740    -0.55800
C347        C  0.35858437  0.93034467  0.14339851     0.78000
O348        O  0.29770853  0.98562795  0.09742159    -0.58200
O349        O  0.30550408  0.95321419  0.19545849    -0.56600
O350        O  0.24773658  0.90376627  0.12036657    -0.56600
O351        O  0.34378447  0.92572987  0.11705976    -0.55800
O352        O  0.23630125  0.61413299  0.53536654    -0.57000
C353        C  0.16280504  0.66926406  0.50349563     0.75600
O354        O  0.17038208  0.68921557  0.59685050    -0.58200
C355        C  0.24554171  0.60377303  0.56261906     0.75600
C356        C  0.24056910  0.72504064  0.56099851     0.78000
Cd357      Cd  0.20659697  0.66307515  0.55650049     1.37500
O358        O  0.15808653  0.65092846  0.52735896    -0.57000
O359        O  0.22836524  0.71507463  0.53489459    -0.55800
C360        C  0.15075823  0.66613409  0.59731347     0.78000
O361        O  0.23904744  0.70562312  0.58469520    -0.58200
O362        O  0.19068616  0.68051993  0.50069148    -0.56600
O363        O  0.23852650  0.62169193  0.58658366    -0.56600
O364        O  0.15982319  0.64028013  0.58359044    -0.55800
O365        O  0.08398034  0.83382765  0.43208170    -0.57000
C366        C  0.02838204  0.83713272  0.53564008     0.75600
O367        O  0.06345472  0.76924660  0.43900357    -0.58200
C368        C  0.10669434  0.83654159  0.45189596     0.75600
C369        C  0.98119583  0.82934228  0.44809812     0.78000
Cd370      Cd  0.04448185  0.81556834  0.47191547     1.37500
O371        O  0.04065623  0.80952394  0.53032905    -0.57000
O372        O  0.98803218  0.80344725  0.46278854    -0.55800
C373        C  0.06572461  0.75032016  0.46288481     0.78000
O374        O  0.00451925  0.84712304  0.44036798    -0.58200
O375        O  0.02758441  0.85669489  0.51213140    -0.56600
O376        O  0.09927691  0.83559820  0.48169032    -0.56600
O377        O  0.05279485  0.75960006  0.48920318    -0.55800
O378        O  0.90073355  0.71206602  0.64302248    -0.57000
C379        C  0.96266083  0.78471981  0.62218467     0.75600
O380        O  0.99519498  0.67426405  0.61357862    -0.58200
C381        C  0.91239557  0.70006112  0.66848731     0.75600
C382        C  0.94082382  0.70739539  0.54399238     0.78000
Cd383      Cd  0.95299512  0.71710559  0.61362620     1.37500
O384        O  0.97960159  0.76384836  0.63634405    -0.57000
O385        O  0.94191698  0.73490567  0.55732942    -0.55800
C386        C  0.01798168  0.69406923  0.61585365     0.78000
O387        O  0.94274080  0.68359256  0.56321169    -0.58200
O388        O  0.93790184  0.77435985  0.60839408    -0.56600
O389        O  0.94152772  0.69278324  0.66686059    -0.56600
O390        O  0.01040747  0.72365067  0.61741610    -0.55800
O391        O  0.14815079  0.64395366  0.13327606    -0.57000
C392        C  0.12049691  0.70714829  0.20376722     0.75600
O393        O  0.20810493  0.64221999  0.18295379    -0.58200
C394        C  0.17419181  0.63272198  0.12189963     0.75600
C395        C  0.20702354  0.74949478  0.14494312     0.78000
Cd396      Cd  0.17517826  0.68873329  0.16471928     1.37500
O397        O  0.11640614  0.69899327  0.17422225    -0.57000
O398        O  0.18121357  0.74048706  0.13215542    -0.55800
C399        C  0.19306555  0.63996018  0.20950988     0.78000
O400        O  0.21868745  0.72988068  0.16530012    -0.58200
O401        O  0.14903395  0.70890948  0.21290230    -0.56600
O402        O  0.19794661  0.65113944  0.12460452    -0.56600
O403        O  0.17846344  0.66514285  0.21891668    -0.55800
O404        O  0.04574873  0.45878646  0.23318824    -0.57000
C405        C  0.13338924  0.52284815  0.24876611     0.75600
O406        O  0.08374035  0.48350771  0.32379815    -0.58200
C407        C  0.03472512  0.43702865  0.25187888     0.75600
C408        C  0.15072491  0.42781105  0.26119040     0.78000
Cd409      Cd  0.09515533  0.46785732  0.26651502     1.37500
O410        O  0.11916680  0.50661254  0.22695143    -0.57000
O411        O  0.13629499  0.43829507  0.23646160    -0.55800
C412        C  0.06340379  0.50451808  0.31471619     0.78000
O413        O  0.13639672  0.43108494  0.28837018    -0.58200
O414        O  0.12863700  0.51436325  0.27782684    -0.56600
O415        O  0.05365705  0.42681414  0.27338740    -0.56600
O416        O  0.05867625  0.50752800  0.28463704    -0.55800
O417        O  0.94187406  0.64618368  0.29437046    -0.57000
C418        C  0.99763602  0.61627819  0.34769135     0.75600
O419        O  0.98927003  0.71404115  0.29390192    -0.58200
C420        C  0.92752704  0.66927647  0.28066276     0.75600
C421        C  0.94697257  0.69437928  0.40298210     0.78000
Cd422      Cd  0.96787637  0.67739806  0.33664828     1.37500
O423        O  0.96863397  0.61831556  0.33986680    -0.57000
O424        O  0.93928565  0.66858131  0.38869331    -0.55800
C425        C  0.01806021  0.70629516  0.29807059     0.78000
O426        O  0.96105685  0.71503711  0.38538632    -0.58200
O427        O  0.01225537  0.64270230  0.35118686    -0.56600
O428        O  0.92715515  0.69598954  0.29600990    -0.56600
O429        O  0.02390272  0.68981966  0.32314982    -0.55800
O430        O  0.44350683  0.68919922  0.38248550    -0.57000
C431        C  0.45182326  0.59110143  0.46513241     0.75600
O432        O  0.43007128  0.60695670  0.38048124    -0.58200
C433        C  0.46843177  0.68075341  0.36697015     0.75600
C434        C  0.44731659  0.69067599  0.47476233     0.78000
Cd435      Cd  0.44381818  0.64524683  0.42194677     1.37500
O436        O  0.47354160  0.59706315  0.44423739    -0.57000
O437        O  0.42062761  0.68251533  0.46303865    -0.55800
C438        C  0.40020342  0.61006132  0.38252944     0.78000
O439        O  0.47202910  0.68036069  0.45999602    -0.58200
O440        O  0.42825994  0.61021777  0.46591986    -0.56600
O441        O  0.48407768  0.65694209  0.37844467    -0.56600
O442        O  0.38947270  0.63096282  0.40271679    -0.55800
O443        O  0.31992410  0.42904815  0.36119583    -0.57000
C444        C  0.34511041  0.49945125  0.32412466     0.75600
O445        O  0.39829936  0.44546327  0.29741124    -0.58200
C446        C  0.33590091  0.40488971  0.37056522     0.75600
C447        C  0.28458902  0.41289867  0.27481805     0.78000
Cd448      Cd  0.34255496  0.43152601  0.30765122     1.37500
O449        O  0.35047979  0.48983942  0.29530905    -0.57000
O450        O  0.30158355  0.43548593  0.26346950    -0.55800
C451        C  0.40915813  0.41713331  0.29414381     0.78000
O452        O  0.29705056  0.39650533  0.29703934    -0.58200
O453        O  0.33576816  0.47818677  0.34392884    -0.56600
O454        O  0.35477674  0.39208235  0.35011268    -0.56600
O455        O  0.38851112  0.39504956  0.29196315    -0.55800
O456        O  0.40404290  0.39411022  0.59377246    -0.57000
C457        C  0.41878107  0.48120663  0.54135005     0.75600
O458        O  0.33294332  0.41524415  0.52439025    -0.58200
C459        C  0.38152393  0.37404096  0.59632675     0.75600
C460        C  0.32136965  0.48502752  0.57112371     0.78000
Cd461      Cd  0.37109381  0.43559418  0.56263656     1.37500
O462        O  0.40804749  0.48231448  0.57020978    -0.57000
O463        O  0.34040966  0.47927011  0.59426033    -0.55800
C464        C  0.35350934  0.40635207  0.50360031     0.78000
O465        O  0.32357461  0.46594466  0.54724963    -0.58200
O466        O  0.41128228  0.45651931  0.52498421    -0.56600
O467        O  0.35427615  0.38503978  0.58967440    -0.56600
O468        O  0.38243554  0.41013769  0.51082079    -0.55800
O469        O  0.69171672  0.22790247  0.56075571    -0.57000
C470        C  0.68432845  0.30069602  0.61796778     0.75600
O471        O  0.61212594  0.24068358  0.55067373    -0.58200
C472        C  0.67969227  0.20093071  0.55299372     0.75600
C473        C  0.62143330  0.22627925  0.66174390     0.78000
Cd474      Cd  0.64818195  0.24503610  0.59847647     1.37500
O475        O  0.69823241  0.27352658  0.61423415    -0.57000
O476        O  0.64813184  0.21546640  0.65208903    -0.55800
C477        C  0.61065813  0.27082588  0.54566773     0.78000
O478        O  0.60577397  0.24200447  0.64093328    -0.58200
O479        O  0.65472377  0.30103625  0.61339732    -0.56600
O480        O  0.65593451  0.19212321  0.56983846    -0.56600
O481        O  0.62252228  0.28864290  0.56727962    -0.55800
O482        O  0.76725333  0.39635246  0.51737037    -0.57000
C483        C  0.71744116  0.45991181  0.50151526     0.75600
O484        O  0.77198798  0.42452859  0.59943162    -0.58200
C485        C  0.78994022  0.38339861  0.53245521     0.75600
C486        C  0.80053692  0.50919110  0.54340650     0.78000
Cd487      Cd  0.76768471  0.44813622  0.54588228     1.37500
O488        O  0.74493619  0.45077451  0.49254096    -0.57000
O489        O  0.79973706  0.49045986  0.51915307    -0.55800
C490        C  0.74233098  0.42031077  0.60233569     0.78000
O491        O  0.78995280  0.49803554  0.56986654    -0.58200
O492        O  0.71324921  0.46478716  0.53166918    -0.56600
O493        O  0.80658192  0.40235810  0.54947755    -0.56600
O494        O  0.72448769  0.43664732  0.58383121    -0.55800
O495        O  0.64638591  0.35492174  0.36123053    -0.57000
C496        C  0.58709389  0.33929293  0.42690628     0.75600
O497        O  0.62559917  0.43302401  0.38197614    -0.58200
C498        C  0.65705263  0.37588560  0.34172460     0.75600
C499        C  0.53749410  0.39221475  0.33504222     0.78000
Cd500      Cd  0.59531157  0.38383422  0.37343111     1.37500
O501        O  0.59926612  0.32965154  0.40022242    -0.57000
O502        O  0.55044217  0.36467624  0.33816597    -0.55800
C503        C  0.62001589  0.43489062  0.41205949     0.78000
O504        O  0.55179484  0.41540054  0.34846297    -0.58200
O505        O  0.57651960  0.36801600  0.42724545    -0.56600
O506        O  0.63749066  0.39762377  0.33344278    -0.56600
O507        O  0.59803318  0.41718688  0.42294390    -0.55800
O508        O  0.70282524  0.10411432  0.42592615    -0.57000
C509        C  0.71132310  0.04737226  0.33807467     0.75600
O510        O  0.62314792  0.08847931  0.36155385    -0.58200
C511        C  0.69729678  0.13381983  0.43088876     0.75600
C512        C  0.66891540  0.14268630  0.31407026     0.78000
Cd513      Cd  0.67948535  0.10191775  0.37011460     1.37500
O514        O  0.72367989  0.07524153  0.33764791    -0.57000
O515        O  0.69625910  0.13154815  0.32057510    -0.55800
C516        C  0.62025908  0.07257718  0.38753881     0.78000
O517        O  0.64729624  0.13755402  0.33500527    -0.58200
O518        O  0.68752357  0.04425198  0.35658649    -0.56600
O519        O  0.68792427  0.14962292  0.40653235    -0.56600
O520        O  0.64388218  0.07252054  0.40617085    -0.55800
O521        O  0.66255039  0.87836895  0.14682803    -0.57000
C522        C  0.71077588  0.95113374  0.23912480     0.75600
O523        O  0.64285880  0.88878896  0.21996238    -0.58200
C524        C  0.68595473  0.85991961  0.15233105     0.75600
C525        C  0.67718824  0.97541561  0.14100239     0.78000
Cd526      Cd  0.67592267  0.92152710  0.18540483     1.37500
O527        O  0.69385349  0.92631435  0.24291331    -0.57000
O528        O  0.65354776  0.97041387  0.15960175    -0.55800
C529        C  0.61824711  0.90638040  0.21951321     0.78000
O530        O  0.69838915  0.95347237  0.14028842    -0.58200
O531        O  0.71577877  0.95908183  0.21001925    -0.56600
O532        O  0.70699033  0.87131478  0.17104294    -0.56600
O533        O  0.61935952  0.93124062  0.20158396    -0.55800
O534        O  0.54372732  0.94561107  0.38075940    -0.57000
C535        C  0.54897148  0.88710061  0.33356703     0.75600
O536        O  0.60204227  0.86926541  0.39633189    -0.58200
C537        C  0.54967994  0.96108691  0.40643833     0.75600
C538        C  0.48729791  0.86398337  0.42311327     0.78000
Cd539      Cd  0.54756154  0.89203473  0.40284463     1.37500
O540        O  0.55609100  0.86298258  0.35101091    -0.57000
O541        O  0.51036555  0.84591623  0.41476296    -0.55800
C542        C  0.61323346  0.87909340  0.42288273     0.78000
O543        O  0.49370386  0.89359435  0.42614488    -0.58200
O544        O  0.53846233  0.91182448  0.34833233    -0.56600
O545        O  0.55224461  0.94450077  0.43212006    -0.56600
O546        O  0.59305952  0.89120838  0.44253165    -0.55800
O547        O  0.84770059  0.13268725  0.55759744    -0.57000
C548        C  0.87523093  0.18615304  0.50023478     0.75600
O549        O  0.77031544  0.14118986  0.52722955    -0.58200
C550        C  0.82848670  0.12526411  0.58003138     0.75600
C551        C  0.79965788  0.24339700  0.54127542     0.78000
Cd552      Cd  0.81679495  0.17611628  0.53374423     1.37500
O553        O  0.87353318  0.18783192  0.53087227    -0.57000
O554        O  0.81612588  0.22892043  0.56235191    -0.55800
C555        C  0.77999564  0.12971412  0.50032064     0.78000
O556        O  0.78716679  0.22558267  0.51991877    -0.58200
O557        O  0.84955831  0.18069551  0.48545745    -0.56600
O558        O  0.80561322  0.14496506  0.58491036    -0.56600
O559        O  0.80192841  0.14501360  0.48599223    -0.55800
O560        O  0.84263436  0.89257684  0.47266796    -0.57000
C561        C  0.78386865  0.99619386  0.46661652     0.75600
O562        O  0.84304606  0.96307394  0.41193938    -0.58200
C563        C  0.85487913  0.88463743  0.44520756     0.75600
C564        C  0.74735693  0.90336669  0.44179890     0.78000
Cd565      Cd  0.80800212  0.93410841  0.44858647     1.37500
O566        O  0.79172049  0.97589225  0.48852853    -0.57000
O567        O  0.76093590  0.90576588  0.46918560    -0.55800
C568        C  0.86357971  0.96838464  0.43407477     0.78000
O569        O  0.76314553  0.91298381  0.41711257    -0.58200
O570        O  0.78571433  0.98657440  0.43730153    -0.56600
O571        O  0.84173034  0.89586898  0.41988971    -0.56600
O572        O  0.85725434  0.95867839  0.46272473    -0.55800
O573        O  0.03589137  0.07347049  0.47829447    -0.57000
C574        C  0.97691660  0.04434492  0.42076654     0.75600
O575        O  0.01273637  0.14394341  0.45102965    -0.58200
C576        C  0.06172732  0.08801680  0.48334973     0.75600
C577        C  0.05046902  0.09851098  0.35706404     0.78000
Cd578      Cd  0.02592245  0.09280710  0.42267118     1.37500
O579        O  0.00545338  0.03610621  0.42647871    -0.57000
O580        O  0.04575759  0.07097457  0.36947670    -0.55800
C581        C  0.98630285  0.14757316  0.43717688     0.78000
O582        O  0.04911053  0.12220326  0.37651095    -0.58200
O583        O  0.97188431  0.07404807  0.41580887    -0.56600
O584        O  0.07367643  0.10200819  0.45882922    -0.56600
O585        O  0.98025717  0.12797537  0.41458382    -0.55800
O586        O  0.01938088  0.19037577  0.12929784    -0.57000
C587        C  0.96316778  0.20406220  0.20744257     0.75600
O588        O  0.95317739  0.11463607  0.15933626    -0.58200
C589        C  0.02811114  0.16823706  0.10981101     0.75600
C590        C  0.03028067  0.12702270  0.22278899     0.78000
Cd591      Cd  0.99524284  0.15507695  0.16976082     1.37500
O592        O  0.98906575  0.20975133  0.19267616    -0.57000
O593        O  0.03594701  0.15492748  0.21175121    -0.55800
C594        C  0.93910559  0.13260267  0.13900081     0.78000
O595        O  0.01128812  0.10989652  0.20638031    -0.58200
O596        O  0.95236642  0.17577835  0.20459298    -0.56600
O597        O  0.02618603  0.13946127  0.12019162    -0.56600
O598        O  0.95188205  0.15937224  0.13258657    -0.55800
O599        O  0.71052312  0.12421777  0.12128629    -0.57000
C600        C  0.76818393  0.21022523  0.14206615     0.75600
O601        O  0.80068008  0.14619399  0.07247621    -0.58200
C602        C  0.71287614  0.10246745  0.09952758     0.75600
C603        C  0.72369518  0.21368270  0.05984419     0.78000
Cd604      Cd  0.74897349  0.16161462  0.09659995     1.37500
O605        O  0.74451280  0.19245420  0.14915006    -0.57000
O606        O  0.70942140  0.20244548  0.08442566    -0.55800
C607        C  0.81104978  0.13483343  0.09903148     0.78000
O608        O  0.74566744  0.19605819  0.04764099    -0.58200
O609        O  0.78267412  0.20349437  0.11598403    -0.56600
O610        O  0.72966898  0.10934823  0.07485513    -0.56600
O611        O  0.79161624  0.13373477  0.12261424    -0.55800
O612        O  0.80965175  0.35985687  0.30959102    -0.57000
C613        C  0.88698062  0.30658440  0.25848066     0.75600
O614        O  0.82177959  0.34488735  0.20789408    -0.58200
C615        C  0.78884783  0.37841381  0.29713363     0.75600
C616        C  0.90091220  0.39896336  0.25925249     0.78000
Cd617      Cd  0.84454942  0.35903175  0.26119728     1.37500
O618        O  0.87242158  0.31202164  0.28524887    -0.57000
O619        O  0.89166729  0.38398544  0.28442201    -0.55800
C620        C  0.80909968  0.31908441  0.21877066     0.78000
O621        O  0.88079918  0.40116194  0.23638181    -0.58200
O622        O  0.88097559  0.32484907  0.23478527    -0.56600
O623        O  0.79684542  0.39244325  0.27094683    -0.56600
O624        O  0.81097152  0.31397117  0.24888309    -0.55800
C625        C  0.79572403  0.29401753  0.19752344    -0.04600
C626        C  0.81361676  0.28406412  0.17057886    -0.32100
C627        C  0.80548808  0.25633531  0.15317221     0.37200
C628        C  0.77826766  0.23831339  0.16197839    -0.05000
C629        C  0.75999411  0.24864275  0.18878235    -0.32000
C630        C  0.76886509  0.27596554  0.20683816     0.37100
H631        H  0.83507311  0.29688330  0.16395651     0.17400
O632        O  0.82520561  0.24643316  0.12835679    -0.59500
H633        H  0.73892573  0.23545894  0.19590142     0.17500
O634        O  0.75092716  0.28512656  0.23327267    -0.59600
H635        H  0.75794409  0.27081848  0.25110525     0.44500
H636        H  0.81921970  0.25991978  0.10955545     0.44400
C637        C  0.84470144  0.12588945  0.10397604    -0.04600
C638        C  0.85310916  0.11009609  0.13282644    -0.32100
C639        C  0.88461032  0.10930359  0.14319016     0.37200
C640        C  0.90824629  0.12457048  0.12466205    -0.05000
C641        C  0.90039158  0.13760393  0.09435735    -0.32000
C642        C  0.86892823  0.13806288  0.08376935     0.37100
H643        H  0.83491361  0.10036173  0.14866746     0.17400
O644        O  0.89127020  0.09711557  0.17324297    -0.59500
H645        H  0.91842355  0.14931228  0.07972769     0.17500
O646        O  0.86189725  0.15347082  0.05533924    -0.59600
H647        H  0.86267405  0.13627517  0.03849986     0.44500
H648        H  0.89613296  0.07391859  0.16949977     0.44400
C649        C  0.94599621  0.22943093  0.22609253    -0.04600
C650        C  0.95670700  0.26142218  0.22431744    -0.32100
C651        C  0.93864807  0.28669655  0.23752054     0.37200
C652        C  0.90977619  0.28017602  0.25349143    -0.05000
C653        C  0.90011906  0.24815585  0.25763666    -0.32000
C654        C  0.91799341  0.22274619  0.24400907     0.37100
H655        H  0.97832812  0.26716946  0.21120140     0.17400
O656        O  0.94880064  0.31795351  0.23376547    -0.59500
H657        H  0.87759956  0.24299506  0.26937113     0.17500
O658        O  0.90686465  0.19178778  0.24680573    -0.59600
H659        H  0.91571647  0.18363993  0.26742921     0.44500
H660        H  0.94307604  0.32397116  0.21129882     0.44400
C661        C  0.04285723  0.11677213  0.25484615    -0.04600
C662        C  0.05516181  0.14051687  0.27567040    -0.32100
C663        C  0.06040098  0.13414329  0.30851395     0.37200
C664        C  0.05368808  0.10334999  0.32138281    -0.05000
C665        C  0.04417847  0.07872117  0.29993486    -0.32000
C666        C  0.03863385  0.08523967  0.26701468     0.37100
H667        H  0.05877486  0.16494420  0.26707032     0.17400
O668        O  0.06978340  0.15901693  0.32824689    -0.59500
H669        H  0.03880226  0.05485126  0.30909984     0.17500
O670        O  0.02713621  0.06111056  0.24757498    -0.59600
H671        H  0.04624925  0.04999005  0.23862675     0.44500
H672        H  0.09324830  0.15956203  0.32610890     0.44400
C673        C  0.89380448  0.98513699  0.42729913    -0.04600
C674        C  0.92089978  0.97727964  0.44543225    -0.32100
C675        C  0.94911262  0.99478055  0.44178888     0.37200
C676        C  0.95012927  0.02135300  0.42062810    -0.05000
C677        C  0.92347011  0.02823668  0.40147453    -0.32000
C678        C  0.89568818  0.00999117  0.40424031     0.37100
H679        H  0.92003920  0.95782038  0.46291814     0.17400
O680        O  0.97464686  0.98727110  0.46080339    -0.59500
H681        H  0.92387903  0.04844400  0.38485095     0.17500
O682        O  0.86981240  0.01823069  0.38601226    -0.59600
H683        H  0.87257719  0.00612647  0.36535358     0.44500
H684        H  0.98552812  0.96902735  0.44950948     0.44400
C685        C  0.77499066  0.03032529  0.47413282    -0.04600
C686        C  0.77832492  0.05377487  0.44971544    -0.32100
C687        C  0.77677467  0.08688142  0.45708309     0.37200
C688        C  0.77064374  0.09712289  0.48912469    -0.05000
C689        C  0.76376573  0.07370851  0.51274638    -0.32000
C690        C  0.76625867  0.04058813  0.50559636     0.37100
H691        H  0.78452782  0.04658095  0.42517559     0.17400
O692        O  0.78287268  0.10898895  0.43314941    -0.59500
H693        H  0.75932180  0.08096328  0.53765268     0.17500
O694        O  0.76212942  0.01863971  0.53005041    -0.59600
H695        H  0.73878769  0.01642840  0.53255719     0.44500
H696        H  0.80625108  0.10821994  0.42965511     0.44400
C697        C  0.90576717  0.18778198  0.48249299    -0.04600
C698        C  0.90581403  0.18392389  0.44866283    -0.32100
C699        C  0.93361243  0.17514073  0.43212709     0.37200
C700        C  0.96182366  0.17012804  0.44954134    -0.05000
C701        C  0.96290098  0.17941024  0.48225690    -0.32000
C702        C  0.93499534  0.18783424  0.49894374     0.37100
H703        H  0.88379260  0.18487549  0.43529743     0.17400
O704        O  0.93209345  0.16806390  0.39967666    -0.59500
H705        H  0.98457165  0.17644062  0.49593383     0.17500
O706        O  0.93628426  0.19331115  0.53172146    -0.59600
H707        H  0.93682318  0.17153442  0.54172617     0.44500
H708        H  0.93680321  0.18872324  0.38854509     0.44400
C709        C  0.64821419  0.87892592  0.42930910    -0.04600
C710        C  0.65963655  0.88780777  0.45999379    -0.32100
C711        C  0.69211157  0.89384055  0.46493228     0.37200
C712        C  0.71401503  0.89154975  0.43881983    -0.05000
C713        C  0.70288654  0.88086575  0.40866001    -0.32000
C714        C  0.67058796  0.87413859  0.40389095     0.37100
H715        H  0.64316090  0.89144043  0.48000923     0.17400
O716        O  0.70179557  0.90362334  0.49505167    -0.59500
H717        H  0.71916660  0.87861872  0.38828280     0.17500
O718        O  0.66098137  0.86508933  0.37353057    -0.59600
H719        H  0.66299599  0.84117486  0.37309018     0.44500
H720        H  0.69943008  0.92750140  0.49511312     0.44400
C721        C  0.68134785  0.00669258  0.12371596    -0.04600
C722        C  0.66406794  0.03392313  0.13454032    -0.32100
C723        C  0.67286489  0.06523631  0.12527006     0.37200
C724        C  0.69874537  0.06988019  0.10401679    -0.05000
C725        C  0.71396107  0.04250866  0.09050756    -0.32000
C726        C  0.70562846  0.01115540  0.10033333     0.37100
H727        H  0.64509766  0.03124090  0.15220486     0.17400
O728        O  0.65655346  0.09127103  0.13787349    -0.59500
H729        H  0.73387450  0.04544196  0.07399589     0.17500
O730        O  0.72274054  0.98531276  0.08842317    -0.59600
H731        H  0.70979496  0.97650012  0.07050564     0.44500
H732        H  0.66386109  0.09336968  0.16055049     0.44400
C733        C  0.59119120  0.89895346  0.24121763    -0.04600
C734        C  0.58894194  0.86768713  0.25429184    -0.32100
C735        C  0.57134420  0.86213744  0.28257631     0.37200
C736        C  0.55614183  0.88825799  0.29844414    -0.05000
C737        C  0.55425567  0.91822544  0.28251291    -0.32000
C738        C  0.57180043  0.92376304  0.25414103     0.37100
H739        H  0.60297122  0.84800815  0.24409403     0.17400
O740        O  0.57204645  0.83193082  0.29615819    -0.59500
H741        H  0.54190735  0.93848740  0.29375652     0.17500
O742        O  0.57234700  0.95431553  0.24133846    -0.59600
H743        H  0.58836571  0.96623055  0.25412354     0.44500
H744        H  0.55109872  0.82234974  0.29115342     0.44400
C745        C  0.72072825  0.97195199  0.26692967    -0.04600
C746        C  0.73381535  0.00260649  0.26078036    -0.32100
C747        C  0.73411232  0.02676827  0.28490021     0.37200
C748        C  0.72134360  0.02048622  0.31596577    -0.05000
C749        C  0.71185142  0.98876106  0.32312694    -0.32000
C750        C  0.71153990  0.96462840  0.29906384     0.37100
H751        H  0.74141591  0.00887154  0.23647100     0.17400
O752        O  0.74432443  0.05716919  0.27691163    -0.59500
H753        H  0.70246340  0.98314536  0.34696443     0.17500
O754        O  0.70040786  0.93452099  0.30688378    -0.59600
H755        H  0.67695256  0.93678627  0.30769343     0.44500
H756        H  0.72591010  0.06781071  0.26644772     0.44400
C757        C  0.55674099  0.99603076  0.40493596    -0.04600
C758        C  0.55710060  0.01094430  0.37436995    -0.32100
C759        C  0.57480139  0.03884514  0.36903678     0.37200
C760        C  0.59245788  0.05219287  0.39456311    -0.05000
C761        C  0.58786613  0.04036358  0.42613444    -0.32000
C762        C  0.56975059  0.01261531  0.43152402     0.37100
H763        H  0.54641694  0.99920165  0.35366089     0.17400
O764        O  0.57819294  0.04991535  0.33792724    -0.59500
H765        H  0.60052247  0.05096903  0.44626908     0.17500
O766        O  0.56788579  0.00016513  0.46220871    -0.59600
H767        H  0.54807495  0.00950202  0.47166624     0.44500
H768        H  0.56187779  0.06713042  0.33575045     0.44400
C769        C  0.75584314  0.38094324  0.31075876    -0.04600
C770        C  0.74672555  0.36095356  0.33670568    -0.32100
C771        C  0.71477602  0.35852710  0.34655280     0.37200
C772        C  0.69091037  0.37637458  0.33056725    -0.05000
C773        C  0.70013618  0.39719013  0.30537573    -0.32000
C774        C  0.73204836  0.39957374  0.29547256     0.37100
H775        H  0.76432451  0.34634041  0.34896315     0.17400
O776        O  0.70736056  0.33919284  0.37241410    -0.59500
H777        H  0.68246788  0.41167190  0.29305982     0.17500
O778        O  0.73940905  0.41950815  0.27007173    -0.59600
H779        H  0.74516690  0.44043881  0.28020103     0.44500
H780        H  0.70447306  0.31728486  0.36307416     0.44400
C781        C  0.79451578  0.34765929  0.53256338    -0.04600
C782        C  0.81451997  0.33333556  0.55560407    -0.32100
C783        C  0.81585109  0.29961243  0.55938414     0.37200
C784        C  0.79683164  0.27931146  0.54004451    -0.05000
C785        C  0.77725099  0.29367034  0.51669756    -0.32000
C786        C  0.77573089  0.32730228  0.51305589     0.37100
H787        H  0.82870634  0.34834442  0.57136890     0.17400
O788        O  0.83577934  0.28688413  0.58220339    -0.59500
H789        H  0.76302983  0.27882346  0.50090347     0.17500
O790        O  0.75580789  0.33991799  0.49014133    -0.59600
H791        H  0.73437968  0.33994430  0.50036385     0.44500
H792        H  0.85658644  0.28427104  0.57100050     0.44400
C793        C  0.64167793  0.45240037  0.43379570    -0.04600
C794        C  0.67280553  0.45767881  0.42263610    -0.32100
C795        C  0.69753992  0.46231556  0.44438583     0.37200
C796        C  0.69127332  0.46266725  0.47800747    -0.05000
C797        C  0.65959676  0.46149375  0.48894554    -0.32000
C798        C  0.63485446  0.45617250  0.46710047     0.37100
H799        H  0.67871115  0.45495500  0.39714808     0.17400
O800        O  0.72802874  0.46375797  0.43251438    -0.59500
H801        H  0.65419190  0.46213708  0.51465651     0.17500
O802        O  0.60462548  0.45190605  0.47887269    -0.59600
H803        H  0.59472078  0.47372158  0.47851503     0.44500
H804        H  0.73202389  0.48703886  0.42888495     0.44400
C805        C  0.69067952  0.18219112  0.52385369    -0.04600
C806        C  0.68450815  0.14890015  0.52125449    -0.32100
C807        C  0.68897831  0.13223499  0.49168093     0.37200
C808        C  0.69917414  0.14896002  0.46369839    -0.05000
C809        C  0.70649552  0.18186514  0.46662872    -0.32000
C810        C  0.70271937  0.19835150  0.49630883     0.37100
H811        H  0.67481116  0.13601047  0.54184488     0.17400
O812        O  0.68005152  0.10045571  0.48960992    -0.59500
H813        H  0.71392095  0.19529793  0.44542381     0.17500
O814        O  0.70765003  0.23107617  0.49717400    -0.59600
H815        H  0.73081250  0.23371838  0.49393082     0.44500
H816        H  0.69757645  0.08800189  0.49961472     0.44400
C817        C  0.70114307  0.33130354  0.62515708    -0.04600
C818        C  0.68305648  0.35976169  0.62987188    -0.32100
C819        C  0.69708406  0.39023706  0.62747331     0.37200
C820        C  0.72974541  0.39259106  0.62069634    -0.05000
C821        C  0.74852864  0.36430630  0.62127318    -0.32000
C822        C  0.73443052  0.33376474  0.62276703     0.37100
H823        H  0.65748597  0.35856421  0.63269411     0.17400
O824        O  0.67814520  0.41734792  0.62820032    -0.59500
H825        H  0.77379651  0.36548988  0.61621232     0.17500
O826        O  0.75318151  0.30676113  0.61887387    -0.59600
H827        H  0.75479261  0.30333793  0.59508960     0.44500
H828        H  0.67636331  0.42336893  0.65144647     0.44400
C829        C  0.58715203  0.31914848  0.45685359    -0.04600
C830        C  0.60003833  0.28767332  0.45610822    -0.32100
C831        C  0.60560601  0.27057620  0.48491014     0.37200
C832        C  0.59832498  0.28488024  0.51521194    -0.05000
C833        C  0.58392152  0.31553203  0.51590221    -0.32000
C834        C  0.57788645  0.33241613  0.48720899     0.37100
H835        H  0.60733910  0.27684968  0.43325545     0.17400
O836        O  0.62032060  0.24090515  0.48322099    -0.59500
H837        H  0.57835490  0.32701544  0.53893545     0.17500
O838        O  0.56483500  0.36282072  0.48947287    -0.59600
H839        H  0.54161170  0.35960008  0.48745477     0.44500
H840        H  0.64340048  0.24558678  0.48251761     0.44400
C841        C  0.44392428  0.41029184  0.29646372    -0.04600
C842        C  0.45473961  0.37833255  0.30063880    -0.32100
C843        C  0.48582414  0.37178807  0.31112818     0.37200
C844        C  0.50673553  0.39743289  0.31802117    -0.05000
C845        C  0.49672735  0.42916471  0.31123847    -0.32000
C846        C  0.46590371  0.43569768  0.30038212     0.37100
H847        H  0.43848822  0.35834970  0.29775854     0.17400
O848        O  0.49451546  0.34037451  0.31702113    -0.59500
H849        H  0.51245804  0.44930841  0.31565858     0.17500
O850        O  0.45699680  0.46731922  0.29589051    -0.59600
H851        H  0.46044939  0.47140413  0.27246749     0.44500
H852        H  0.50290851  0.33207581  0.29602571     0.44400
C853        C  0.33461856  0.39448876  0.40450842    -0.04600
C854        C  0.36088753  0.37824290  0.41758791    -0.32100
C855        C  0.36579234  0.37856177  0.45098906     0.37200
C856        C  0.34418457  0.39521186  0.47134545    -0.05000
C857        C  0.31545456  0.40660967  0.45870155    -0.32000
C858        C  0.31051738  0.40627981  0.42540305     0.37100
H859        H  0.37922609  0.36817742  0.40188336     0.17400
O860        O  0.39309595  0.36516921  0.46308072    -0.59500
H861        H  0.29813547  0.41870603  0.47419293     0.17500
O862        O  0.28356093  0.42054172  0.41347573    -0.59600
H863        H  0.26904618  0.40238674  0.40870339     0.44500
H864        H  0.38655068  0.34406257  0.47225639     0.44400
C865        C  0.43603690  0.50854861  0.52576373    -0.04600
C866        C  0.44821676  0.50448362  0.49405855    -0.32100
C867        C  0.45594096  0.53122411  0.47470400     0.37200
C868        C  0.45219008  0.56276740  0.48707145    -0.05000
C869        C  0.44239732  0.56681628  0.51950863    -0.32000
C870        C  0.43466041  0.54011687  0.53892038     0.37100
H871        H  0.44939090  0.48059237  0.48321832     0.17400
O872        O  0.46408005  0.52632891  0.44279379    -0.59500
H873        H  0.43895612  0.59096437  0.52930059     0.17500
O874        O  0.42266304  0.54552528  0.56948807    -0.59600
H875        H  0.44150012  0.54891707  0.58331857     0.44500
H876        H  0.44360267  0.52551867  0.43104567     0.44400
C877        C  0.35225507  0.53286927  0.33510996    -0.04600
C878        C  0.37477820  0.55108188  0.31790963    -0.32100
C879        C  0.38879631  0.57829429  0.33210859     0.37200
C880        C  0.37968205  0.58825152  0.36359175    -0.05000
C881        C  0.35462733  0.57231989  0.37921695    -0.32000
C882        C  0.34106722  0.54469375  0.36534295     0.37100
H883        H  0.38350762  0.54277142  0.29451910     0.17400
O884        O  0.41227592  0.59432361  0.31555399    -0.59500
H885        H  0.34739119  0.57958901  0.40345236     0.17500
O886        O  0.31856559  0.52815119  0.38270197    -0.59600
H887        H  0.29795322  0.53445112  0.37301007     0.44500
H888        H  0.43162457  0.58073258  0.31782040     0.44400
C889        C  0.93476200  0.40993209  0.25627185    -0.04600
C890        C  0.95804201  0.39278536  0.27354062    -0.32100
C891        C  0.99045396  0.40001709  0.27065306     0.37200
C892        C  0.00083459  0.42564728  0.25073416    -0.05000
C893        C  0.97764660  0.44255244  0.23281458    -0.32000
C894        C  0.94499398  0.43473713  0.23526586     0.37100
H895        H  0.95116864  0.37295665  0.28912437     0.17400
O896        O  0.01174088  0.38197294  0.28802130    -0.59500
H897        H  0.98470335  0.46246759  0.21745404     0.17500
O898        O  0.92336883  0.45189452  0.21747655    -0.59600
H899        H  0.91716191  0.47055265  0.23139657     0.44500
H900        H  0.01669216  0.36291699  0.27413436     0.44400
C901        C  0.25074710  0.40822255  0.26562455    -0.04600
C902        C  0.23816564  0.42497555  0.23912650    -0.32100
C903        C  0.20519791  0.42833409  0.23532220     0.37200
C904        C  0.18408846  0.41579061  0.25891893    -0.05000
C905        C  0.19655870  0.39647008  0.28363435    -0.32000
C906        C  0.22946480  0.39200267  0.28669188     0.37100
H907        H  0.25388434  0.43730071  0.22240226     0.17400
O908        O  0.19414531  0.44706534  0.21045332    -0.59500
H909        H  0.18084715  0.38622862  0.30175460     0.17500
O910        O  0.24043911  0.37437865  0.31239455    -0.59600
H911        H  0.24247332  0.35189211  0.30410339     0.44500
H912        H  0.19297878  0.43225426  0.19153551     0.44400
C913        C  0.04675705  0.52669376  0.33679483    -0.04600
C914        C  0.06339192  0.55378331  0.34760307    -0.32100
C915        C  0.04732076  0.58276883  0.35431761     0.37200
C916        C  0.01407256  0.58468998  0.35025944    -0.05000
C917        C  0.99717015  0.55621962  0.34386618    -0.32000
C918        C  0.01336662  0.52738160  0.33680065     0.37100
H919        H  0.08913913  0.55363739  0.34714719     0.17400
O920        O  0.06478673  0.60976113  0.36123608    -0.59500
H921        H  0.97156710  0.55685787  0.34147530     0.17500
O922        O  0.99657081  0.50071623  0.32719247    -0.59600
H923        H  0.99182357  0.50423317  0.30398020     0.44500
H924        H  0.06517014  0.61100966  0.38521914     0.44400
C925        C  0.18698158  0.60818229  0.22503312    -0.04600
C926        C  0.19104969  0.57974292  0.20644849    -0.32100
C927        C  0.17459107  0.55134534  0.21440761     0.37200
C928        C  0.15392800  0.55095673  0.24140157    -0.05000
C929        C  0.15276846  0.57809031  0.26195698    -0.32000
C930        C  0.16899976  0.60647888  0.25399912     0.37100
H931        H  0.20494043  0.58014341  0.18422350     0.17400
O932        O  0.17891589  0.52412313  0.19575574    -0.59500
H933        H  0.13775422  0.57793952  0.28342187     0.17500
O934        O  0.16487480  0.63322717  0.27336148    -0.59600
H935        H  0.18292950  0.63271062  0.28862853     0.44500
H936        H  0.16527666  0.52736826  0.17661535     0.44400
C937        C  0.09390628  0.71247785  0.22750890    -0.04600
C938        C  0.06210757  0.71274173  0.21738861    -0.32100
C939        C  0.03695919  0.71325110  0.24014825     0.37200
C940        C  0.04334121  0.71332567  0.27374718    -0.05000
C941        C  0.07498591  0.71469595  0.28375091    -0.32000
C942        C  0.10003473  0.71445013  0.26118816     0.37100
H943        H  0.05666272  0.71131459  0.19181712     0.17400
O944        O  0.00630872  0.71170867  0.22925771    -0.59500
H945        H  0.08046406  0.71466070  0.30936335     0.17500
O946        O  0.13052375  0.71487771  0.27262083    -0.59600
H947        H  0.13537586  0.69216323  0.27854427     0.44500
H948        H  0.00225923  0.68838662  0.22550894     0.44400
C949        C  0.93891205  0.70387579  0.50783718    -0.04600
C950        C  0.94096933  0.73154956  0.48805650    -0.32100
C951        C  0.94228133  0.72907518  0.45400655     0.37200
C952        C  0.94165141  0.69856057  0.43874011    -0.05000
C953        C  0.93836868  0.67098107  0.45842337    -0.32000
C954        C  0.93725256  0.67338237  0.49246579     0.37100
H955        H  0.94234854  0.75530155  0.49905594     0.17400
O956        O  0.94457400  0.75666971  0.43591524    -0.59500
H957        H  0.93783262  0.64715164  0.44743676     0.17500
O958        O  0.93485680  0.64563730  0.51038114    -0.59600
H959        H  0.95690649  0.63726830  0.51213939     0.44500
H960        H  0.92236144  0.76261281  0.43059005     0.44400
C961        C  0.88515342  0.86607383  0.44259774    -0.04600
C962        C  0.90818772  0.87594414  0.41981744    -0.32100
C963        C  0.93917897  0.86316820  0.42015140     0.37200
C964        C  0.94753983  0.83944049  0.44302248    -0.05000
C965        C  0.92381331  0.82806682  0.46432975    -0.32000
C966        C  0.89307983  0.84148662  0.46456720     0.37100
H967        H  0.90271075  0.89510627  0.40288391     0.17400
O968        O  0.96139222  0.87515166  0.39896042    -0.59500
H969        H  0.92954398  0.80995921  0.48222668     0.17500
O970        O  0.87137956  0.83122063  0.48717213    -0.59600
H971        H  0.85886679  0.81426064  0.47598855     0.44500
H972        H  0.96262182  0.85914770  0.38102755     0.44400
C973        C  0.01161922  0.84358079  0.56637218    -0.04600
C974        C  0.02604305  0.83466833  0.59548600    -0.32100
C975        C  0.00744341  0.82288599  0.62111764     0.37200
C976        C  0.97481110  0.81759285  0.61596380    -0.05000
C977        C  0.95993578  0.83493055  0.59110752    -0.32000
C978        C  0.97831995  0.84718232  0.56560726     0.37100
H979        H  0.05168804  0.83309374  0.59692893     0.17400
O980        O  0.02188404  0.81153465  0.64859098    -0.59500
H981        H  0.93451072  0.83299499  0.58773214     0.17500
O982        O  0.96346652  0.85700278  0.53783122    -0.59600
H983        H  0.95885602  0.83679676  0.52573296     0.44500
H984        H  0.03527840  0.79293775  0.64156227     0.44400
C985        C  0.26322902  0.57235880  0.56616707    -0.04600
C986        C  0.26550087  0.55097114  0.53970522    -0.32100
C987        C  0.28275491  0.52185211  0.54167065     0.37200
C988        C  0.29901113  0.51348259  0.57042844    -0.05000
C989        C  0.29567892  0.53422202  0.59736573    -0.32000
C990        C  0.27754305  0.56297429  0.59562433     0.37100
H991        H  0.25397751  0.55689029  0.51709961     0.17400
O992        O  0.28379265  0.50197405  0.51496385    -0.59500
H993        H  0.30749794  0.52838284  0.61982211     0.17500
O994        O  0.27478677  0.58211333  0.62272092    -0.59600
H995        H  0.25604068  0.57366516  0.63467606     0.44500
H996        H  0.30097868  0.51066275  0.50102197     0.44400
C997        C  0.13589253  0.68045684  0.48317257    -0.04600
C998        C  0.14137116  0.70293861  0.45835446    -0.32100
C999        C  0.11671900  0.72295386  0.44735505     0.37200
C1000       C  0.08634831  0.72127860  0.46202474    -0.05000
C1001       C  0.07988627  0.69588914  0.48333999    -0.32000
C1002       C  0.10418305  0.67512773  0.49347508     0.37100
H1003       H  0.16531934  0.70719110  0.44963021     0.17400
O1004       O  0.12385323  0.74718367  0.42596751    -0.59500
H1005       H  0.05658645  0.69397215  0.49451889     0.17500
O1006       O  0.09721022  0.65257400  0.51668033    -0.59600
H1007       H  0.09053012  0.63309976  0.50445816     0.44500
H1008       H  0.11800956  0.73855125  0.40438048     0.44400
C1009       C  0.05184704  0.68395753  0.61605138    -0.04600
C1010       C  0.07473281  0.70556853  0.62781650    -0.32100
C1011       C  0.10725268  0.69884767  0.62457810     0.37200
C1012       C  0.11755377  0.67015692  0.60911136    -0.05000
C1013       C  0.09461635  0.64758437  0.59926895    -0.32000
C1014       C  0.06207033  0.65431506  0.60251570     0.37100
H1015       H  0.06742193  0.72837896  0.63864698     0.17400
O1016       O  0.12865184  0.72143859  0.63488635    -0.59500
H1017       H  0.10180973  0.62550993  0.58692612     0.17500
O1018       O  0.04066474  0.63302789  0.58972401    -0.59600
H1019       H  0.03650874  0.61719884  0.60718187     0.44500
H1020       H  0.13396240  0.71507114  0.65735023     0.44400
C1021       C  0.24897032  0.84469689  0.12841393    -0.04600
C1022       C  0.26603947  0.81974768  0.14377659    -0.32100
C1023       C  0.25308532  0.78885617  0.14847222     0.37200
C1024       C  0.22229241  0.78155288  0.13743136    -0.05000
C1025       C  0.20560975  0.80599323  0.12069894    -0.32000
C1026       C  0.21849596  0.83728175  0.11646637     0.37100
H1027       H  0.28941448  0.82446871  0.15334489     0.17400
O1028       O  0.27057416  0.76627480  0.16491371    -0.59500
H1029       H  0.18197868  0.80122319  0.11177234     0.17500
O1030       O  0.20093845  0.86037557  0.10082826    -0.59600
H1031       H  0.18713393  0.87020808  0.11784252     0.44500
H1032       H  0.28301443  0.75456275  0.14800195     0.44400
C1033       C  0.38860402  0.83908070  0.41598588    -0.04600
C1034       C  0.41204949  0.81541802  0.40947612    -0.32100
C1035       C  0.44446057  0.82197473  0.41416663     0.37200
C1036       C  0.45392113  0.85246511  0.42609765    -0.05000
C1037       C  0.43021459  0.87469917  0.43569928    -0.32000
C1038       C  0.39800192  0.86843495  0.43048113     0.37100
H1039       H  0.40552342  0.79255716  0.39856797     0.17400
O1040       O  0.46663961  0.79912908  0.40514775    -0.59500
H1041       H  0.43669100  0.89812809  0.44535987     0.17500
O1042       O  0.37603050  0.89184984  0.43849174    -0.59600
H1043       H  0.37693777  0.90773322  0.42054890     0.44500
H1044       H  0.46953630  0.80185223  0.38143080     0.44400
C1045       C  0.20427048  0.82891360  0.41921652    -0.04600
C1046       C  0.19718409  0.84501606  0.44856406    -0.32100
C1047       C  0.16553583  0.84833263  0.45964041     0.37200
C1048       C  0.14030159  0.83692117  0.44046446    -0.05000
C1049       C  0.14756998  0.82161373  0.41085857    -0.32000
C1050       C  0.17898122  0.81727351  0.40041818     0.37100
H1051       H  0.21621364  0.85470930  0.46310299     0.17400
O1052       O  0.15954407  0.86331613  0.48879638    -0.59500
H1053       H  0.12875551  0.81202107  0.39594669     0.17500
O1054       O  0.18460029  0.80208503  0.37129134    -0.59600
H1055       H  0.18453090  0.81959235  0.35495074     0.44500
H1056       H  0.16360002  0.84656858  0.50542815     0.44400
C1057       C  0.27682550  0.94249189  0.24387757    -0.04600
C1058       C  0.30511206  0.94392197  0.26164650    -0.32100
C1059       C  0.30756063  0.92885543  0.29164066     0.37200
C1060       C  0.28117725  0.91256870  0.30474419    -0.05000
C1061       C  0.25160115  0.91558763  0.28936163    -0.32000
C1062       C  0.24930732  0.93028667  0.25893717     0.37100
H1063       H  0.32648404  0.95390008  0.25095372     0.17400
O1064       O  0.33679398  0.92714875  0.30595315    -0.59500
H1065       H  0.23073830  0.90407057  0.29947869     0.17500
O1066       O  0.22065227  0.93063373  0.24335127    -0.59600
H1067       H  0.21796673  0.90842307  0.23469298     0.44500
H1068       H  0.33761932  0.94619836  0.32053858     0.44400
C1069       C  0.48269380  0.72801095  0.27460125    -0.04600
C1070       C  0.49138294  0.69531544  0.27851322    -0.32100
C1071       C  0.48904103  0.68010557  0.30897288     0.37200
C1072       C  0.47733117  0.69739213  0.33619757    -0.05000
C1073       C  0.46973103  0.73027659  0.33247933    -0.32000
C1074       C  0.47266087  0.74563358  0.30232321     0.37100
H1075       H  0.49875270  0.68110355  0.25761726     0.17400
O1076       O  0.49622963  0.64780423  0.31131103    -0.59500
H1077       H  0.46028288  0.74395510  0.35288652     0.17500
O1078       O  0.46261126  0.77712037  0.29969295    -0.59600
H1079       H  0.48089193  0.79032303  0.30671041     0.44500
H1080       H  0.47616985  0.63641400  0.30636039     0.44400
C1081       C  0.39098787  0.91751779  0.14928399    -0.04600
C1082       C  0.40069192  0.91340756  0.18162331    -0.32100
C1083       C  0.42374351  0.89023316  0.18949056     0.37200
C1084       C  0.43795078  0.87161249  0.16469103    -0.05000
C1085       C  0.43276595  0.88033907  0.13225403    -0.32000
C1086       C  0.40907257  0.90282600  0.12437944     0.37100
H1087       H  0.38770860  0.92507877  0.20126786     0.17400
O1088       O  0.42871386  0.88285390  0.22145018    -0.59500
H1089       H  0.44408253  0.86663061  0.11285136     0.17500
O1090       O  0.40204853  0.90813585  0.09242750    -0.59600
H1091       H  0.39020174  0.88875901  0.08528200     0.44500
H1092       H  0.41122471  0.86803713  0.22756841     0.44400
C1093       C  0.35872414  0.75888368  0.22851919    -0.04600
C1094       C  0.35902560  0.73935412  0.25629856    -0.32100
C1095       C  0.33938880  0.74686557  0.28306364     0.37200
C1096       C  0.31911409  0.77415075  0.28199603    -0.05000
C1097       C  0.31537691  0.79019852  0.25223445    -0.32000
C1098       C  0.33511650  0.78295490  0.22575413     0.37100
H1099       H  0.37705441  0.72073071  0.25882763     0.17400
O1100       O  0.34322740  0.72995570  0.31126351    -0.59500
H1101       H  0.29937357  0.81073375  0.25042699     0.17500
O1102       O  0.33379804  0.80234470  0.19887242    -0.59600
H1103       H  0.32910733  0.78764937  0.18048695     0.44500
H1104       H  0.32765328  0.71211472  0.31008502     0.44400
C1105       C  0.71820803  0.24763341  0.04923242    -0.04600
C1106       C  0.73418890  0.25951397  0.02172386    -0.32100
C1107       C  0.73750090  0.29294817  0.01685114     0.37200
C1108       C  0.72538152  0.31500641  0.04006076    -0.05000
C1109       C  0.70741414  0.30335744  0.06609361    -0.32000
C1110       C  0.70316014  0.27011270  0.07045716     0.37100
H1111       H  0.74608563  0.24292725  0.00516023     0.17400
O1112       O  0.75576524  0.30362964  0.99142925    -0.59500
H1113       H  0.69797026  0.32006823  0.08410297     0.17500
O1114       O  0.68711325  0.26001933  0.09759998    -0.59600
H1115       H  0.66455381  0.25886548  0.09104780     0.44500
H1116       H  0.74147895  0.30344995  0.97245013     0.44400
C1117       C  0.89498993  0.66085171  0.18161090    -0.04600
C1118       C  0.91577550  0.63796536  0.19483786    -0.32100
C1119       C  0.92503444  0.63968980  0.22723484     0.37200
C1120       C  0.91445867  0.66547176  0.24731655    -0.05000
C1121       C  0.89400928  0.68890619  0.23392358    -0.32000
C1122       C  0.88392949  0.68648543  0.20145830     0.32300
H1123       H  0.92432070  0.61787381  0.18014312     0.17400
O1124       O  0.94551428  0.61649710  0.23856690    -0.59500
H1125       H  0.88588817  0.70917104  0.24858360     0.17500
O1126       O  0.86374188  0.70948714  0.18930429    -0.59600
H1127       H  0.87775351  0.72692034  0.18113632     0.44500
H1128       H  0.93195247  0.59768424  0.24390816     0.44400
C1129       C  0.82624827  0.53401523  0.11343242    -0.04600
C1130       C  0.84884095  0.50879600  0.11111969    -0.32100
C1131       C  0.83939564  0.47648679  0.10886965     0.37200
C1132       C  0.80688438  0.46884185  0.10978931    -0.05000
C1133       C  0.78477330  0.49360226  0.11711392    -0.32000
C1134       C  0.79416002  0.52603466  0.11852475     0.37100
H1135       H  0.87386461  0.51414064  0.10828910     0.17400
O1136       O  0.86191402  0.45289528  0.10327610    -0.59500
H1137       H  0.75958555  0.48843195  0.11797007     0.17500
O1138       O  0.77139948  0.54972155  0.12179435    -0.59600
H1139       H  0.76577049  0.55007547  0.14518506     0.44500
H1140       H  0.86876424  0.45566436  0.08037023     0.44400
C1141       C  0.91396947  0.56240982  0.94213318    -0.04600
C1142       C  0.90753383  0.59575409  0.94376508    -0.32100
C1143       C  0.90727531  0.61222395  0.97358447     0.37200
C1144       C  0.91276714  0.59514781  0.00259762    -0.05000
C1145       C  0.92201477  0.56253152  0.00060306    -0.32000
C1146       C  0.92297898  0.54624011  0.97079938     0.37100
H1147       H  0.90109999  0.60882190  0.92207089     0.17400
O1148       O  0.89833743  0.64416826  0.97426331    -0.59500
H1149       H  0.92647047  0.54892168  0.02250368     0.17500
O1150       O  0.92985282  0.51376640  0.97058484    -0.59600
H1151       H  0.95338327  0.51235144  0.97016820     0.44500
H1152       H  0.91853511  0.65639443  0.97420431     0.44400
C1153       C  0.83869598  0.39618696  0.96456842    -0.04600
C1154       C  0.82920174  0.39141055  0.93237176    -0.32100
C1155       C  0.84829157  0.40193279  0.90669988     0.37200
C1156       C  0.87669661  0.41827382  0.91344783    -0.05000
C1157       C  0.88877882  0.41741441  0.94504896    -0.32000
C1158       C  0.86990564  0.40646315  0.97072510     0.37100
H1159       H  0.80558184  0.38262842  0.92719565     0.17400
O1160       O  0.83636865  0.40114479  0.87589357    -0.59500
H1161       H  0.91105716  0.42916308  0.95048889     0.17500
O1162       O  0.88065908  0.40987046  0.00184803    -0.59600
H1163       H  0.87634000  0.43276560  0.00779975     0.44500
H1164       H  0.84554463  0.38129226  0.86590337     0.44400
C1165       C  0.30068051  0.10908002  0.09298311    -0.04600
C1166       C  0.28448895  0.09995202  0.12137537    -0.32100
C1167       C  0.27690806  0.06742486  0.12738183     0.37200
C1168       C  0.28577362  0.04288305  0.10492406    -0.05000
C1169       C  0.30062033  0.05228085  0.07582667    -0.32000
C1170       C  0.30775386  0.08490308  0.06963748     0.37100
H1171       H  0.27861388  0.11798622  0.13962963     0.17400
O1172       O  0.26202050  0.05987236  0.15603927    -0.59500
H1173       H  0.30788686  0.03412035  0.05822453     0.17500
O1174       O  0.32396740  0.09241742  0.04174707    -0.59600
H1175       H  0.30732720  0.09598766  0.02526380     0.44500
H1176       H  0.27927499  0.05807585  0.17216606     0.44400
C1177       C  0.64203121  0.17923820  0.22027277    -0.04600
C1178       C  0.62649723  0.19042367  0.24858240    -0.32100
C1179       C  0.63600679  0.18013701  0.27939612     0.37200
C1180       C  0.66197265  0.15875826  0.28265650    -0.05000
C1181       C  0.67912072  0.14961133  0.25463080    -0.32000
C1182       C  0.66921394  0.15937831  0.22368446     0.37100
H1183       H  0.60550886  0.20558981  0.24683348     0.17400
O1184       O  0.61868995  0.18990951  0.30602763    -0.59500
H1185       H  0.69909335  0.13307959  0.25648008     0.17500
O1186       O  0.68507929  0.14759762  0.19693713    -0.59600
H1187       H  0.70341016  0.16219524  0.19389125     0.44500
H1188       H  0.63051528  0.20845248  0.31514138     0.44400
C1189       C  0.42504607  0.22462748  0.14943286    -0.04600
C1190       C  0.44564755  0.24934582  0.13921023    -0.32100
C1191       C  0.47845219  0.24657675  0.14380927     0.37200
C1192       C  0.49081137  0.21885022  0.15894412    -0.05000
C1193       C  0.46974356  0.19740886  0.17422048    -0.32000
C1194       C  0.43704239  0.20008690  0.16956942     0.37100
H1195       H  0.43689282  0.26896729  0.12436631     0.17400
O1196       O  0.49816289  0.26870336  0.12952871    -0.59500
H1197       H  0.47876651  0.17646661  0.18697885     0.17500
O1198       O  0.41775148  0.17615448  0.18126323    -0.59600
H1199       H  0.40772530  0.18541904  0.20107281     0.44500
H1200       H  0.50307942  0.28447091  0.14692581     0.44400
C1201       C  0.53619996  0.03583175  0.07976109    -0.04600
C1202       C  0.51254308  0.05118679  0.09846932    -0.32100
C1203       C  0.52113283  0.07369174  0.12215784     0.37200
C1204       C  0.55360227  0.08026880  0.12702861    -0.05000
C1205       C  0.57629661  0.05833455  0.11483083    -0.32000
C1206       C  0.56775242  0.03610448  0.09089837     0.37100
H1207       H  0.48794272  0.05030112  0.09102999     0.17400
O1208       O  0.49792518  0.09272368  0.13609641    -0.59500
H1209       H  0.60124878  0.06174272  0.11969520     0.17500
O1210       O  0.59097152  0.01838110  0.07518279    -0.59600
H1211       H  0.60402752  0.03424507  0.06306092     0.44500
H1212       H  0.49540036  0.08438115  0.15845991     0.44400
C1213       C  0.47812889  0.14091652  0.99012226    -0.04600
C1214       C  0.48343026  0.15879371  0.01850705    -0.32100
C1215       C  0.45872303  0.17636875  0.03338429     0.37200
C1216       C  0.42804604  0.17649813  0.01978990    -0.05000
C1217       C  0.42390088  0.16234960  0.98912873    -0.32000
C1218       C  0.44877348  0.14472694  0.97416851     0.37100
H1219       H  0.50599934  0.15679920  0.03081242     0.17400
O1220       O  0.46440648  0.19214923  0.06208583    -0.59500
H1221       H  0.40065146  0.16246255  0.97808772     0.17500
O1222       O  0.44271188  0.12789212  0.94622068    -0.59600
H1223       H  0.44689978  0.14339322  0.92843949     0.44500
H1224       H  0.46538438  0.17500444  0.07878276     0.44400
C1225       C  0.07535682  0.09005200  0.51680400    -0.04600
C1226       C  0.05820657  0.07658412  0.54277786    -0.32100
C1227       C  0.06767329  0.08080143  0.57502333     0.37200
C1228       C  0.09470333  0.09942248  0.58254636    -0.05000
C1229       C  0.11266202  0.11197929  0.55653552    -0.32000
C1230       C  0.10323251  0.10745955  0.52402045     0.37100
H1231       H  0.03687428  0.06284951  0.53821768     0.17400
O1232       O  0.05023553  0.06619953  0.59899445    -0.59500
H1233       H  0.13415473  0.12535036  0.56135541     0.17500
O1234       O  0.12167751  0.11984893  0.49956402    -0.59600
H1235       H  0.11605754  0.14313066  0.49864713     0.44500
H1236       H  0.05953860  0.04417420  0.60105377     0.44400
C1237       C  0.25449454  0.75813436  0.56393653    -0.04600
C1238       C  0.24173387  0.78395539  0.54596505    -0.32100
C1239       C  0.25162042  0.81605652  0.55117934     0.37200
C1240       C  0.27533411  0.82297546  0.57421155    -0.05000
C1241       C  0.28935512  0.79680241  0.59068538    -0.32000
C1242       C  0.27897112  0.76488291  0.58598970     0.37100
H1243       H  0.22284053  0.77947472  0.52889112     0.17400
O1244       O  0.23674099  0.84052526  0.53476408    -0.59500
H1245       H  0.30741461  0.80119080  0.60868491     0.17500
O1246       O  0.29238726  0.74057100  0.60385546    -0.59600
H1247       H  0.31001295  0.73196582  0.59017751     0.44500
H1248       H  0.24979177  0.84378237  0.51495300     0.44400
C1249       C  0.19110170  0.94419186  0.65790430    -0.04600
C1250       C  0.18967300  0.95560945  0.69005641    -0.32100
C1251       C  0.16680130  0.97852497  0.69944154     0.37200
C1252       C  0.14476599  0.98973500  0.67657516    -0.05000
C1253       C  0.14260539  0.97381007  0.64655367    -0.32000
C1254       C  0.16571524  0.95113413  0.63704233     0.37100
H1255       H  0.20843403  0.94981186  0.70692476     0.17400
O1256       O  0.16916539  0.99308180  0.72928811    -0.59500
H1257       H  0.12530353  0.98176470  0.62895027     0.17500
O1258       O  0.16464841  0.93792953  0.60651020    -0.59600
H1259       H  0.17193840  0.95522604  0.59170578     0.44500
H1260       H  0.18585261  0.00975972  0.72676675     0.44400
C1261       C  0.37155304  0.01125760  0.90689907    -0.04600
C1262       C  0.39466032  0.02952747  0.89054018    -0.32100
C1263       C  0.42600008  0.03104201  0.90151180     0.37200
C1264       C  0.43496472  0.01473500  0.93004842    -0.05000
C1265       C  0.41204883  0.99589762  0.94615708    -0.32000
C1266       C  0.38072423  0.99385379  0.93467796     0.37100
H1267       H  0.38853771  0.04261522  0.86875535     0.17400
O1268       O  0.44723811  0.04985179  0.88482711    -0.59500
H1269       H  0.41822575  0.98317324  0.96813275     0.17500
O1270       O  0.35927592  0.97507409  0.95106019    -0.59600
H1271       H  0.34960870  0.98958962  0.96765299     0.44500
H1272       H  0.45519246  0.03597668  0.86678167     0.44400
C1273       C  0.31214976  0.89992769  0.72137217    -0.04600
C1274       C  0.33832180  0.91689062  0.73334057    -0.32100
C1275       C  0.33766824  0.92965337  0.76474132     0.37200
C1276       C  0.31055296  0.92537885  0.78454851    -0.05000
C1277       C  0.28714655  0.90361697  0.77461750    -0.32000
C1278       C  0.28766947  0.89096244  0.74314996     0.37100
H1279       H  0.35776092  0.92338833  0.71732664     0.17400
O1280       O  0.36204730  0.94920360  0.77435326    -0.59500
H1281       H  0.26658009  0.89911537  0.78986960     0.17500
O1282       O  0.26259191  0.87249886  0.73309044    -0.59600
H1283       H  0.24466467  0.88790713  0.73006563     0.44500
H1284       H  0.37637290  0.93495430  0.78689635     0.44400
C1285       C  0.25787441  0.06681971  0.77522199    -0.04600
C1286       C  0.23872249  0.09412987  0.78149743    -0.32100
C1287       C  0.22126423  0.10868188  0.75655236     0.37200
C1288       C  0.22284128  0.09584010  0.72480559    -0.05000
C1289       C  0.24540425  0.07161972  0.71789677    -0.32000
C1290       C  0.26299994  0.05726313  0.74265683     0.37100
H1291       H  0.23499353  0.10247090  0.80616834     0.17400
O1292       O  0.20016401  0.13302354  0.76423377    -0.59500
H1293       H  0.24722273  0.06170109  0.69365699     0.17500
O1294       O  0.28297281  0.03198059  0.73496326    -0.59600
H1295       H  0.30430801  0.04178005  0.73267198     0.44500
H1296       H  0.18093243  0.12202691  0.77252190     0.44400
C1297       C  0.39609289  0.27115623  0.61494714    -0.04600
C1298       C  0.37319695  0.28221797  0.59292028    -0.32100
C1299       C  0.36821346  0.31535965  0.58741541     0.37200
C1300       C  0.38659823  0.33884779  0.60350942    -0.05000
C1301       C  0.41080088  0.32798758  0.62417511    -0.32000
C1302       C  0.41544162  0.29461072  0.63016500     0.37100
H1303       H  0.35801488  0.26510347  0.58067554     0.17400
O1304       O  0.34580525  0.32449767  0.56525478    -0.59500
H1305       H  0.42571151  0.34543036  0.63630276     0.17500
O1306       O  0.43814539  0.28541641  0.65193297    -0.59600
H1307       H  0.45768104  0.28180006  0.63877841     0.44500
H1308       H  0.32521365  0.32354036  0.57704931     0.44400
C1309       C  0.34218433  0.08291496  0.62316574    -0.04600
C1310       C  0.31080590  0.07408349  0.63077714    -0.32100
C1311       C  0.29971770  0.04250416  0.62552049     0.37200
C1312       C  0.31995889  0.01815651  0.61235134    -0.05000
C1313       C  0.35116321  0.02712397  0.60379324    -0.32000
C1314       C  0.36214363  0.05910360  0.60866628     0.37100
H1315       H  0.29476264  0.09159717  0.64183217     0.17400
O1316       O  0.26914217  0.03555744  0.63469058    -0.59500
H1317       H  0.36735887  0.00914731  0.59380930     0.17500
O1318       O  0.39293572  0.06627097  0.60056740    -0.59600
H1319       H  0.39235896  0.07216525  0.57729457     0.44500
H1320       H  0.27097677  0.02522878  0.65626185     0.44400
C1321       C  0.59164355  0.22283919  0.76298327    -0.04600
C1322       C  0.61005444  0.19745977  0.74945850    -0.32100
C1323       C  0.61953046  0.19771519  0.71652648     0.37200
C1324       C  0.61005786  0.22323985  0.69607716    -0.05000
C1325       C  0.59113013  0.24813241  0.70942706    -0.32000
C1326       C  0.58206699  0.24819064  0.74226287     0.37100
H1327       H  0.61706901  0.17721688  0.76441047     0.17400
O1328       O  0.63707826  0.17231608  0.70434881    -0.59500
H1329       H  0.58374853  0.26821506  0.69442295     0.17500
O1330       O  0.56358453  0.27326089  0.75368632    -0.59600
H1331       H  0.54139758  0.26683670  0.74914691     0.44500
H1332       H  0.65935394  0.17716681  0.71009236     0.44400
C1333       C  0.58959869  0.19423190  0.02617029    -0.04600
C1334       C  0.58585575  0.16624948  0.00688107    -0.32100
C1335       C  0.57991958  0.16817547  0.97336190     0.37200
C1336       C  0.57760263  0.19851266  0.95797037    -0.05000
C1337       C  0.58281903  0.22643069  0.97690325    -0.32000
C1338       C  0.58862879  0.22452318  0.01049132     0.37100
H1339       H  0.58651360  0.14256713  0.01798414     0.17400
O1340       O  0.57597154  0.14014134  0.95603150    -0.59500
H1341       H  0.58127609  0.25008313  0.96582959     0.17500
O1342       O  0.59225697  0.25259696  0.02782220    -0.59600
H1343       H  0.61552856  0.25595613  0.02887370     0.44500
H1344       H  0.59768499  0.13359754  0.94895560     0.44400
C1345       C  0.48101201  0.15759518  0.79531377    -0.04600
C1346       C  0.44792692  0.15845672  0.79957262    -0.32100
C1347       C  0.42753263  0.15605289  0.77303577     0.37200
C1348       C  0.44006744  0.15324923  0.74120069    -0.05000
C1349       C  0.47302052  0.14918494  0.73727055    -0.32000
C1350       C  0.49344882  0.15122421  0.76394453     0.37100
H1351       H  0.43777216  0.16321197  0.82335319     0.17400
O1352       O  0.39550313  0.15952188  0.77841787    -0.59500
H1353       H  0.48322445  0.14638921  0.71322203     0.17500
O1354       O  0.52562862  0.14954312  0.75857224    -0.59600
H1355       H  0.53187346  0.17157860  0.75168729     0.44500
H1356       H  0.38755946  0.13722862  0.78155576     0.44400
C1357       C  0.43344900  0.34604991  0.84109207    -0.04600
C1358       C  0.46519748  0.35344874  0.84776728    -0.32100
C1359       C  0.48682378  0.32905249  0.85654521     0.37200
C1360       C  0.47664246  0.29665960  0.85901511    -0.05000
C1361       C  0.44412351  0.29005328  0.85530432    -0.32000
C1362       C  0.42271237  0.31438087  0.84616158     0.37100
H1363       H  0.47394325  0.37762427  0.84325839     0.17400
O1364       O  0.51808397  0.33692397  0.86099933    -0.59500
H1365       H  0.43555859  0.26547413  0.85706824     0.17500
O1366       O  0.39208150  0.30627920  0.83875123    -0.59600
H1367       H  0.38106448  0.30393996  0.85993120     0.44500
H1368       H  0.52731773  0.33865906  0.83887543     0.44400
C1369       C  0.34438222  0.31885130  0.73187228    -0.04600
C1370       C  0.33853743  0.31469142  0.69873461    -0.32100
C1371       C  0.33143963  0.28410520  0.68612374     0.37200
C1372       C  0.33151990  0.25677954  0.70658071    -0.05000
C1373       C  0.33410416  0.26159509  0.74013861    -0.32000
C1374       C  0.33998185  0.29238394  0.75290259     0.37100
H1375       H  0.34103467  0.33487927  0.68226879     0.17400
O1376       O  0.32827025  0.28074878  0.65326548    -0.59500
H1377       H  0.33414931  0.24104688  0.75634624     0.17500
O1378       O  0.34484251  0.29550267  0.78557608    -0.59600
H1379       H  0.32332705  0.29805613  0.79525857     0.44500
H1380       H  0.30555422  0.28531717  0.64896931     0.44400
C1381       C  0.05172088  0.18771977  0.00965223    -0.04600
C1382       C  0.03095036  0.20809212  0.02713701    -0.32100
C1383       C  0.02429980  0.20263058  0.05995052     0.37200
C1384       C  0.03764135  0.17570417  0.07591903    -0.05000
C1385       C  0.05786353  0.15480343  0.05831078    -0.32000
C1386       C  0.06553264  0.16105997  0.02568304     0.37100
H1387       H  0.02045354  0.22902705  0.01558382     0.17400
O1388       O  0.00357968  0.22311587  0.07581073    -0.59500
H1389       H  0.06806946  0.13378695  0.06996578     0.17500
O1390       O  0.08602412  0.14058682  0.00953498    -0.59600
H1391       H  0.10758946  0.14772939  0.01576920     0.44500
H1392       H  0.01672446  0.24152626  0.08315891     0.44400
C1393       C  0.09369196  0.13307623  0.77250645    -0.04600
C1394       C  0.07893309  0.16349198  0.77540797    -0.32100
C1395       C  0.07538272  0.17871108  0.80575326     0.37200
C1396       C  0.08750356  0.16410701  0.83399294    -0.05000
C1397       C  0.10211068  0.13359408  0.83124541    -0.32000
C1398       C  0.10463076  0.11779603  0.80099197     0.37100
H1399       H  0.07059561  0.17581379  0.75395424     0.17400
O1400       O  0.06119735  0.20865075  0.80732047    -0.59500
H1401       H  0.11173222  0.12203560  0.85256370     0.17500
O1402       O  0.11983083  0.08839165  0.79927465    -0.59600
H1403       H  0.10292077  0.07215888  0.80275881     0.44500
H1404       H  0.07886119  0.22431608  0.80587675     0.44400
C1405       C  0.97934650  0.51095464  0.79747914    -0.04600
C1406       C  0.98925690  0.48623698  0.77613892    -0.32100
C1407       C  0.02131070  0.48296357  0.76684729     0.37200
C1408       C  0.04435303  0.50376633  0.78013864    -0.05000
C1409       C  0.03382045  0.53041633  0.79872942    -0.32000
C1410       C  0.00166417  0.53426550  0.80716118     0.37100
H1411       H  0.97238117  0.46834649  0.76799877     0.17400
O1412       O  0.03009876  0.45743060  0.74737302    -0.59500
H1413       H  0.05086950  0.54698498  0.80900190     0.17500
O1414       O  0.99310521  0.55865725  0.82816303    -0.59600
H1415       H  0.98706271  0.57705208  0.81414230     0.44500
H1416       H  0.03029900  0.46625700  0.72503981     0.44400
C1417       C  0.23160141  0.47094216  0.75754564    -0.04600
C1418       C  0.24481973  0.45065411  0.73353933    -0.32100
C1419       C  0.27775143  0.44460530  0.73220237     0.37200
C1420       C  0.29792216  0.45750306  0.75623909    -0.05000
C1421       C  0.28494354  0.47936912  0.77887955    -0.32000
C1422       C  0.25232850  0.48668348  0.77920255     0.37100
H1423       H  0.22944002  0.43828984  0.71667808     0.17400
O1424       O  0.28939941  0.42350805  0.70921007    -0.59500
H1425       H  0.29990494  0.48974247  0.79739372     0.17500
O1426       O  0.24055141  0.50652691  0.80322137    -0.59600
H1427       H  0.24120640  0.52860762  0.79397701     0.44500
H1428       H  0.29543642  0.43726783  0.69053331     0.44400
C1429       C  0.08447061  0.30952283  0.85728123    -0.04600
C1430       C  0.10628641  0.31083280  0.83141476    -0.32100
C1431       C  0.11437130  0.34032976  0.81720425     0.37200
C1432       C  0.10114893  0.36938453  0.82937243    -0.05000
C1433       C  0.07781354  0.36783950  0.85395710    -0.32000
C1434       C  0.06933063  0.33818352  0.86780049     0.37100
H1435       H  0.11821619  0.28898234  0.82308981     0.17400
O1436       O  0.13710087  0.34060038  0.79321339    -0.59500
H1437       H  0.06698264  0.38981996  0.86338884     0.17500
O1438       O  0.04793607  0.33781654  0.89306652    -0.59600
H1439       H  0.06084345  0.34046488  0.91289321     0.44500
H1440       H  0.12543213  0.33642610  0.77286112     0.44400
C1441       C  0.18845200  0.53128795  0.09625860    -0.04600
C1442       C  0.21312674  0.55384647  0.09322710    -0.32100
C1443       C  0.20819773  0.58687575  0.09942189     0.37200
C1444       C  0.17809401  0.59860335  0.10970700    -0.05000
C1445       C  0.15324622  0.57609431  0.11279392    -0.32000
C1446       C  0.15813603  0.54286992  0.10599368     0.37100
H1447       H  0.23655375  0.54601203  0.08531609     0.17400
O1448       O  0.23348301  0.60734103  0.09595063    -0.59500
H1449       H  0.13001206  0.58412491  0.12107861     0.17500
O1450       O  0.13294247  0.52213696  0.10836056    -0.59600
H1451       H  0.13070081  0.51729839  0.13178591     0.44500
H1452       H  0.23232019  0.61524322  0.07332932     0.44400
C1453       C  0.26878129  0.35962130  0.07938795    -0.04600
C1454       C  0.25866596  0.33687534  0.10256301    -0.32100
C1455       C  0.27251370  0.30579021  0.10411162     0.37200
C1456       C  0.29651579  0.29647168  0.08172514    -0.05000
C1457       C  0.30736174  0.31959839  0.05945578    -0.32000
C1458       C  0.29391271  0.35070229  0.05818016     0.37100
H1459       H  0.23929628  0.34283862  0.11902614     0.17400
O1460       O  0.26139223  0.28435472  0.12671793    -0.59500
H1461       H  0.32629075  0.31349084  0.04251675     0.17500
O1462       O  0.30501363  0.37182247  0.03526656    -0.59600
H1463       H  0.29362965  0.36615830  0.01509753     0.44500
H1464       H  0.27355601  0.28903936  0.14666112     0.44400
C1465       C  0.18329400  0.48682191  0.89137059    -0.04600
C1466       C  0.16664322  0.50398839  0.91551643    -0.32100
C1467       C  0.17659797  0.50266949  0.94770963     0.37200
C1468       C  0.20333699  0.48375004  0.95594954    -0.05000
C1469       C  0.22267469  0.47100097  0.93114686    -0.32000
C1470       C  0.21283580  0.47252927  0.89890244     0.37100
H1471       H  0.14443081  0.51605706  0.90999893     0.17400
O1472       O  0.15832145  0.51735474  0.97126745    -0.59500
H1473       H  0.24372711  0.45703771  0.93692679     0.17500
O1474       O  0.23101516  0.45774248  0.87533661    -0.59600
H1475       H  0.24485528  0.47504130  0.86662529     0.44500
H1476       H  0.16867180  0.53845922  0.97536004     0.44400
C1477       C  0.15669067  0.35602220  0.00735453    -0.04600
C1478       C  0.12429873  0.34945660  0.01132266    -0.32100
C1479       C  0.11061804  0.32256212  0.99607973     0.37200
C1480       C  0.12959970  0.30115084  0.97708304    -0.05000
C1481       C  0.16218039  0.30718296  0.97417768    -0.32000
C1482       C  0.17570426  0.33425432  0.98892183     0.37100
H1483       H  0.10935051  0.36565397  0.02555175     0.17400
O1484       O  0.07868263  0.31739807  0.00013486    -0.59500
H1485       H  0.17722130  0.29129457  0.95970424     0.17500
O1486       O  0.20767532  0.33924257  0.98489746    -0.59600
H1487       H  0.21771384  0.32937362  0.00416312     0.44500
H1488       H  0.06820646  0.33165358  0.98410736     0.44400
C1489       C  0.83263288  0.03134884  0.62620618    -0.04600
C1490       C  0.85163806  0.03837751  0.59906277    -0.32100
C1491       C  0.85147284  0.06904599  0.58497452     0.37200
C1492       C  0.83158679  0.09388116  0.59751822    -0.05000
C1493       C  0.81257269  0.08705433  0.62483503    -0.32000
C1494       C  0.81316565  0.05623630  0.63931539     0.37100
H1495       H  0.86696944  0.01993565  0.58849768     0.17400
O1496       O  0.87002307  0.07389031  0.55796244    -0.59500
H1497       H  0.79703928  0.10558050  0.63491355     0.17500
O1498       O  0.79513773  0.05103683  0.66660211    -0.59600
H1499       H  0.77409103  0.04425831  0.65854209     0.44500
H1500       H  0.89114482  0.08005749  0.56636709     0.44400
C1501       C  0.86882783  0.70487306  0.76295661    -0.04600
C1502       C  0.85216410  0.71636886  0.73593365    -0.32100
C1503       C  0.86478601  0.71294042  0.70446510     0.37200
C1504       C  0.89426714  0.69711119  0.69950278    -0.05000
C1505       C  0.90905204  0.68257287  0.72624817    -0.32000
C1506       C  0.89660784  0.68631118  0.75767014     0.37100
H1507       H  0.83065624  0.73056044  0.73933681     0.17400
O1508       O  0.84918939  0.72718644  0.67916761    -0.59500
H1509       H  0.93146781  0.66986590  0.72315383     0.17500
O1510       O  0.91299397  0.67353269  0.78323793    -0.59600
H1511       H  0.90624719  0.65062542  0.78443995     0.44500
H1512       H  0.85409001  0.75056488  0.68091162     0.44400
C1513       C  0.82023032  0.71257290  0.94635227    -0.04600
C1514       C  0.81080953  0.68032613  0.95025096    -0.32100
C1515       C  0.80995007  0.66594693  0.98111499     0.37200
C1516       C  0.81924733  0.68373835  0.00875619    -0.05000
C1517       C  0.82699621  0.71647914  0.00492081    -0.32000
C1518       C  0.82773167  0.73081784  0.97423596     0.37100
H1519       H  0.80529325  0.66577300  0.92916692     0.17400
O1520       O  0.80317561  0.63365007  0.98346106    -0.59500
H1521       H  0.83444501  0.73064000  0.02562603     0.17500
O1522       O  0.83796365  0.76214171  0.97166877    -0.59600
H1523       H  0.86147114  0.76060395  0.96997865     0.44500
H1524       H  0.78080894  0.63158758  0.97640902     0.44400
C1525       C  0.81295602  0.89303456  0.76112137    -0.04600
C1526       C  0.79303457  0.86603139  0.75802058    -0.32100
C1527       C  0.79347111  0.84113227  0.78103392     0.37200
C1528       C  0.81410437  0.84296908  0.80770195    -0.05000
C1529       C  0.83082649  0.87181085  0.81290280    -0.32000
C1530       C  0.83055528  0.89657701  0.78987398     0.37100
H1531       H  0.77911286  0.86276717  0.73631187     0.17400
O1532       O  0.77634145  0.81368171  0.77518029    -0.59500
H1533       H  0.84629657  0.87417774  0.83362576     0.17500
O1534       O  0.84959524  0.92292739  0.79459123    -0.59600
H1535       H  0.87114232  0.91583699  0.78754028     0.44500
H1536       H  0.75618395  0.81674904  0.78744641     0.44400
C1537       C  0.11804279  0.96613244  0.88256756    -0.04600
C1538       C  0.14072017  0.94131386  0.88640346    -0.32100
C1539       C  0.17333997  0.94794075  0.88756115     0.37200
C1540       C  0.18432612  0.98000318  0.88450437    -0.05000
C1541       C  0.16156342  0.00506038  0.88262658    -0.32000
C1542       C  0.12878262  0.99838793  0.88175078     0.37100
H1543       H  0.13322804  0.91632711  0.88754463     0.17400
O1544       O  0.19427343  0.92254260  0.89006322    -0.59500
H1545       H  0.16919143  0.02989505  0.88012753     0.17500
O1546       O  0.10773489  0.02344350  0.87765557    -0.59600
H1547       H  0.10383206  0.03226483  0.89974440     0.44500
H1548       H  0.19831478  0.92037322  0.91359929     0.44400
C1549       C  0.99080506  0.84000479  0.88081279    -0.04600
C1550       C  0.96880644  0.83810546  0.90647552    -0.32100
C1551       C  0.94431805  0.81559879  0.90575173     0.37200
C1552       C  0.94192394  0.79401224  0.87934846    -0.05000
C1553       C  0.96668988  0.79266734  0.85633129    -0.32000
C1554       C  0.99104472  0.81555067  0.85686901     0.37100
H1555       H  0.96838495  0.85629629  0.92545902     0.17400
O1556       O  0.92108634  0.81732673  0.92921864    -0.59500
H1557       H  0.96568092  0.77584373  0.83616878     0.17500
O1558       O  0.01293685  0.81571938  0.83208027    -0.59600
H1559       H  0.03119229  0.80276486  0.84014725     0.44500
H1560       H  0.92711131  0.80085358  0.94543000     0.44400
C1561       C  0.99063635  0.95039816  0.76136665    -0.04600
C1562       C  0.97226610  0.97842605  0.75664365    -0.32100
C1563       C  0.94775109  0.97888076  0.73399597     0.37200
C1564       C  0.94190467  0.95130234  0.71469755    -0.05000
C1565       C  0.96298839  0.92491777  0.71642573    -0.32000
C1566       C  0.98693069  0.92410269  0.73984352     0.37100
H1567       H  0.97478528  0.99910131  0.77261871     0.17400
O1568       O  0.92859193  0.00579466  0.73226301    -0.59500
H1569       H  0.95929696  0.90365945  0.70152491     0.17500
O1570       O  0.00532151  0.89676418  0.74266603    -0.59600
H1571       H  0.99160065  0.88071350  0.75372158     0.44500
H1572       H  0.91390063  0.00431577  0.75114870     0.44400
C1573       C  0.49870339  0.77622484  0.01764164    -0.04600
C1574       C  0.52250182  0.77223395  0.04112350    -0.32100
C1575       C  0.51503229  0.76442795  0.07342650     0.37200
C1576       C  0.48315409  0.76019081  0.08322329    -0.05000
C1577       C  0.45934962  0.76333786  0.05959476    -0.32000
C1578       C  0.46684675  0.77109126  0.02720209     0.37100
H1579       H  0.54726874  0.77502597  0.03445462     0.17400
O1580       O  0.53924381  0.76064935  0.09513744    -0.59500
H1581       H  0.43459725  0.76070390  0.06640064     0.17500
O1582       O  0.44268561  0.77434803  0.00536702    -0.59600
H1583       H  0.43852535  0.75211071  0.99743680     0.44500
H1584       H  0.54529938  0.78289703  0.10151783     0.44400
C1585       C  0.67941597  0.98406185  0.95493990    -0.04600
C1586       C  0.67148278  0.01173982  0.93680730    -0.32100
C1587       C  0.64045634  0.02468120  0.93740745     0.37200
C1588       C  0.61647401  0.00959744  0.95583150    -0.05000
C1589       C  0.62464847  0.98246909  0.97451051    -0.32000
C1590       C  0.65564448  0.96995225  0.97446334     0.37100
H1591       H  0.68917189  0.02286106  0.92132140     0.17400
O1592       O  0.63372160  0.05150942  0.91924358    -0.59500
H1593       H  0.60683138  0.97074754  0.98938874     0.17500
O1594       O  0.66175805  0.94250664  0.99193329    -0.59600
H1595       H  0.66846193  0.95032009  0.01355106     0.44500
H1596       H  0.62778311  0.04302363  0.89761994     0.44400
C1597       C  0.85446575  0.95088024  0.90385665    -0.04600
C1598       C  0.86522787  0.95381534  0.87173977    -0.32100
C1599       C  0.89768129  0.95690209  0.86431239     0.37200
C1600       C  0.92062685  0.95743320  0.88926108    -0.05000
C1601       C  0.90977487  0.95587696  0.92152273    -0.32000
C1602       C  0.87719446  0.95265089  0.92892262     0.37100
H1603       H  0.84843152  0.95277498  0.85206076     0.17400
O1604       O  0.90664179  0.95822804  0.83231356    -0.59500
H1605       H  0.92668535  0.95605017  0.94115403     0.17500
O1606       O  0.86805794  0.95032039  0.96080077    -0.59600
H1607       H  0.87069137  0.92714117  0.96630772     0.44500
H1608       H  0.91101312  0.93545076  0.82590045     0.44400
C1609       C  0.67338528  0.87590011  0.88560452    -0.04600
C1610       C  0.67330884  0.84222292  0.88110661    -0.32100
C1611       C  0.64566468  0.82410748  0.88609021     0.37200
C1612       C  0.61703325  0.83945426  0.89606801    -0.05000
C1613       C  0.61663836  0.87334553  0.89882779    -0.32000
C1614       C  0.64431041  0.89153789  0.89355816     0.37100
H1615       H  0.69524828  0.82950522  0.87537374     0.17400
O1616       O  0.64754466  0.79113184  0.88284085    -0.59500
H1617       H  0.59500163  0.88583309  0.90607386     0.17500
O1618       O  0.64312193  0.92427811  0.89898257    -0.59600
H1619       H  0.63441021  0.93365021  0.87880958     0.44500
H1620       H  0.64342607  0.78677614  0.85960140     0.44400
C1621       C  0.68793900  0.82656064  0.13827349    -0.04600
C1622       C  0.71623163  0.80851129  0.14034797    -0.32100
C1623       C  0.71863789  0.77713724  0.12719395     0.37200
C1624       C  0.69254198  0.76305723  0.11115435    -0.05000
C1625       C  0.66387380  0.78068346  0.11019953    -0.32000
C1626       C  0.66132152  0.81182565  0.12376961     0.37100
H1627       H  0.73683085  0.81888832  0.15188327     0.17400
O1628       O  0.74712020  0.76105244  0.12913377    -0.59500
H1629       H  0.64336918  0.77060139  0.09822486     0.17500
O1630       O  0.63262826  0.82765861  0.12240566    -0.59600
H1631       H  0.62090679  0.82089984  0.14219522     0.44500
H1632       H  0.74597851  0.74884017  0.14975213     0.44400
C1633       C  0.73130473  0.57994921  0.04429816    -0.04600
C1634       C  0.75339776  0.56762446  0.02159655    -0.32100
C1635       C  0.75669294  0.53425750  0.01588539     0.37200
C1636       C  0.73739329  0.51192689  0.03269641    -0.05000
C1637       C  0.71527019  0.52417292  0.05547002    -0.32000
C1638       C  0.71219963  0.55764337  0.06138625     0.37100
H1639       H  0.76828073  0.58393035  0.00793152     0.17400
O1640       O  0.77890662  0.52386862  0.99359201    -0.59500
H1641       H  0.70059939  0.50770708  0.06928726     0.17500
O1642       O  0.68991476  0.56819020  0.08349522    -0.59600
H1643       H  0.70086245  0.56780705  0.10469100     0.44500
H1644       H  0.79931206  0.52338560  0.00544326     0.44400
C1645       C  0.75584500  0.76224870  0.99299422    -0.04600
C1646       C  0.77013905  0.78605229  0.01250841    -0.32100
C1647       C  0.77438238  0.81776813  0.00101197     0.37200
C1648       C  0.76493210  0.82577759  0.96939794    -0.05000
C1649       C  0.75317397  0.80126900  0.94920485    -0.32000
C1650       C  0.74826574  0.77001264  0.96074841     0.37100
H1651       H  0.77631372  0.78064060  0.03733837     0.17400
O1652       O  0.78775645  0.84060261  0.02074871    -0.59500
H1653       H  0.74606935  0.80669620  0.92462650     0.17500
O1654       O  0.73518358  0.74745960  0.94044361    -0.59600
H1655       H  0.71214195  0.75275931  0.93990057     0.44500
H1656       H  0.77019325  0.84848956  0.03489885     0.44400
C1657       C  0.62588566  0.67210751  0.97930749    -0.04600
C1658       C  0.63142619  0.67529207  0.94583922    -0.32100
C1659       C  0.60683870  0.68423607  0.92524879     0.37200
C1660       C  0.57654124  0.69090136  0.93834904    -0.05000
C1661       C  0.56966644  0.68108876  0.97021158    -0.32000
C1662       C  0.59426319  0.67163205  0.99081404     0.37100
H1663       H  0.65534680  0.67398462  0.93600831     0.17400
O1664       O  0.61378539  0.69113431  0.89349855    -0.59500
H1665       H  0.54618899  0.68500890  0.98052634     0.17500
O1666       O  0.58747392  0.66574640  0.02279194    -0.59600
H1667       H  0.58603017  0.64185893  0.02441064     0.44500
H1668       H  0.60649489  0.67204702  0.88105748     0.44400
C1669       C  0.54971229  0.46079244  0.76029250    -0.04600
C1670       C  0.52807036  0.47364338  0.78322575    -0.32100
C1671       C  0.49553740  0.46650574  0.78222434     0.37200
C1672       C  0.48344457  0.44588107  0.75792641    -0.05000
C1673       C  0.50515285  0.43237303  0.73535371    -0.32000
C1674       C  0.53782390  0.43981211  0.73623725     0.37100
H1675       H  0.53619126  0.49021779  0.80174419     0.17400
O1676       O  0.47577094  0.48032281  0.80505447    -0.59500
H1677       H  0.49683440  0.41584444  0.71689900     0.17500
O1678       O  0.55789904  0.42608077  0.71366968    -0.59600
H1679       H  0.55611288  0.43995015  0.69422921     0.44500
H1680       H  0.47760885  0.46634951  0.82444052     0.44400
C1681       C  0.72635145  0.50046562  0.80555617    -0.04600
C1682       C  0.75012778  0.48298517  0.78873788    -0.32100
C1683       C  0.78234397  0.48552232  0.79695905     0.37200
C1684       C  0.79185133  0.50538359  0.82307780    -0.05000
C1685       C  0.76800731  0.52230779  0.84048445    -0.32000
C1686       C  0.73571026  0.52012418  0.83188926     0.37100
H1687       H  0.74394180  0.46803639  0.76814370     0.17400
O1688       O  0.80432429  0.46841796  0.77900718    -0.59500
H1689       H  0.77440148  0.53758398  0.86076137     0.17500
O1690       O  0.71369109  0.53811264  0.84889174    -0.59600
H1691       H  0.70673060  0.52402976  0.86695837     0.44500
H1692       H  0.80998880  0.48277683  0.76066977     0.44400
C1693       C  0.81145298  0.61158849  0.54575198    -0.04600
C1694       C  0.79675020  0.59671665  0.51919038    -0.32100
C1695       C  0.79590425  0.56291990  0.51641813     0.37200
C1696       C  0.80985030  0.54344261  0.54045302    -0.05000
C1697       C  0.82755985  0.55818531  0.56489947    -0.32000
C1698       C  0.82920164  0.59196661  0.56717528     0.37100
H1699       H  0.78320724  0.61108051  0.50223450     0.17400
O1700       O  0.77842267  0.54924381  0.49208646    -0.59500
H1701       H  0.83865957  0.54351391  0.58337481     0.17500
O1702       O  0.84538944  0.60529484  0.59258857    -0.59600
H1703       H  0.86728749  0.60861414  0.58424121     0.44500
H1704       H  0.75639945  0.54805052  0.50077762     0.44400
C1705       C  0.83239223  0.84790436  0.61813362    -0.04600
C1706       C  0.80468129  0.84386298  0.59980535    -0.32100
C1707       C  0.79450099  0.81296943  0.59036266     0.37200
C1708       C  0.81158575  0.78518686  0.59996354    -0.05000
C1709       C  0.84014392  0.78924786  0.61672835    -0.32000
C1710       C  0.85073710  0.82018700  0.62556604     0.37100
H1711       H  0.79015781  0.86465870  0.59372509     0.17400
O1712       O  0.76640899  0.81012465  0.57404431    -0.59500
H1713       H  0.85396907  0.76826630  0.62368336     0.17500
O1714       O  0.87831336  0.82281909  0.64279735    -0.59600
H1715       H  0.87210806  0.81905979  0.66570663     0.44500
H1716       H  0.77208461  0.81294942  0.55085524     0.44400
C1717       C  0.73067146  0.61111848  0.64812841    -0.04600
C1718       C  0.73657472  0.60940981  0.68141373    -0.32100
C1719       C  0.72160638  0.58623617  0.70065811     0.37200
C1720       C  0.69993037  0.56427659  0.68685532    -0.05000
C1721       C  0.69609656  0.56398961  0.65318540    -0.32000
C1722       C  0.71117442  0.58723144  0.63379585     0.37100
H1723       H  0.75195385  0.62686171  0.69290568     0.17400
O1724       O  0.72735549  0.58617999  0.73332763    -0.59500
H1725       H  0.67992512  0.54704012  0.64207619     0.17500
O1726       O  0.70604440  0.58674577  0.60100993    -0.59600
H1727       H  0.68538990  0.59796699  0.59800371     0.44500
H1728       H  0.74568490  0.57127043  0.73612415     0.44400
C1729       C  0.46233701  0.73082985  0.56964385    -0.04600
C1730       C  0.48098323  0.74126225  0.54324993    -0.32100
C1731       C  0.47516814  0.73008819  0.51167038     0.37200
C1732       C  0.44981523  0.70881485  0.50579792    -0.05000
C1733       C  0.42937226  0.70092328  0.53162393    -0.32000
C1734       C  0.43577022  0.71124986  0.56338231     0.37100
H1735       H  0.50164539  0.75615614  0.54738206     0.17400
O1736       O  0.49544401  0.73875170  0.48705424    -0.59500
H1737       H  0.40973456  0.68461786  0.52765299     0.17500
O1738       O  0.41650096  0.70116619  0.58827909    -0.59600
H1739       H  0.42335698  0.67866360  0.59289976     0.44500
H1740       H  0.48459569  0.75683681  0.47583454     0.44400
C1741       C  0.48121640  0.77840710  0.75390378    -0.04600
C1742       C  0.49675163  0.80563743  0.76657807    -0.32100
C1743       C  0.49897252  0.81058633  0.80023321     0.37200
C1744       C  0.48615782  0.78772323  0.82192648    -0.05000
C1745       C  0.46809590  0.76229960  0.80934704    -0.32000
C1746       C  0.46530481  0.75765755  0.77579256     0.37100
H1747       H  0.50910995  0.82199145  0.75045515     0.17400
O1748       O  0.51691399  0.83573286  0.81148872    -0.59500
H1749       H  0.45779057  0.74463315  0.82558318     0.17500
O1750       O  0.44897545  0.73122531  0.76485553    -0.59600
H1751       H  0.46404358  0.71277642  0.76657078     0.44500
H1752       H  0.50193789  0.85427150  0.81344120     0.44400
C1753       C  0.60488832  0.73762532  0.61823299    -0.04600
C1754       C  0.61212423  0.71491068  0.59369590    -0.32100
C1755       C  0.64348645  0.70971561  0.58320749     0.37200
C1756       C  0.66835177  0.72695313  0.59770624    -0.05000
C1757       C  0.66095741  0.75095200  0.62085118    -0.32000
C1758       C  0.62953100  0.75665854  0.63083040     0.37100
H1759       H  0.59353893  0.70012123  0.58347595     0.17400
O1760       O  0.64977315  0.68559578  0.56110590    -0.59500
H1761       H  0.67980406  0.76447612  0.63226228     0.17500
O1762       O  0.62362979  0.77901962  0.65479890    -0.59600
H1763       H  0.61948455  0.79958056  0.64325866     0.44500
H1764       H  0.64790130  0.69604273  0.53962387     0.44400
C1765       C  0.54032400  0.64805011  0.71367112    -0.04600
C1766       C  0.56331828  0.65195594  0.73790962    -0.32100
C1767       C  0.57973310  0.62534483  0.75035018     0.37200
C1768       C  0.57329579  0.59418162  0.73856204    -0.05000
C1769       C  0.54860809  0.58995337  0.71623824    -0.32000
C1770       C  0.53185708  0.61655304  0.70409246     0.37100
H1771       H  0.56982742  0.67590578  0.74614578     0.17400
O1772       O  0.60354267  0.63036169  0.77224985    -0.59500
H1773       H  0.54314167  0.56601113  0.70716419     0.17500
O1774       O  0.50898063  0.61153623  0.68119445    -0.59600
H1775       H  0.48895508  0.60868522  0.69367757     0.44500
H1776       H  0.62290011  0.63416980  0.75897338     0.44400
loop_ 
_geom_bond_atom_site_label_1 
_geom_bond_atom_site_label_2 
_geom_bond_distance 
_geom_bond_site_symmetry_2 
_ccdc_geom_bond_type 
O1            C4   1.268       .  A
O1           Cd6   2.474       .  S
C2           O11   1.263       .  A
C2            O7   1.270       .  A
C2         C1765   1.480       .  S
O3            C9   1.272       .  A
O3           Cd6   2.491       .  S
C4           O12   1.267       .  A
C4         C1729   1.489       .  S
C5           O10   1.270       .  A
C5            O8   1.265       .  A
C5         C1741   1.495       .  S
Cd6          O13   2.422       .  S
Cd6          O12   2.483       .  S
Cd6          O11   2.413       .  S
Cd6           O7   2.489       .  S
Cd6          O10   2.507       .  S
Cd6           O8   2.457       .  S
C9           O13   1.264       .  A
C9         C1753   1.483       .  S
O14          C17   1.273       .  A
O14         Cd19   2.479       .  S
C15          O24   1.264       .  A
C15          O20   1.278       .  A
C15        C1717   1.486       .  S
O16          C22   1.276       .  A
O16         Cd19   2.478       .  S
C17          O25   1.270       .  A
C17        C1708   1.488       .  S
C18          O23   1.276       .  A
C18          O21   1.268       .  A
C18        C1693   1.489       .  S
Cd19         O26   2.401       .  S
Cd19         O25   2.465       .  S
Cd19         O24   2.409       .  S
Cd19         O20   2.486       .  S
Cd19         O23   2.468       .  S
Cd19         O21   2.409       .  S
C22          O26   1.268       .  A
C22        C1756   1.478       .  S
O27          C30   1.274       .  A
O27         Cd32   2.487       .  S
C28          O37   1.267       .  A
C28          O33   1.276       .  A
C28        C1768   1.473       .  S
O29          C35   1.279       .  A
O29         Cd32   2.517       .  S
C30          O38   1.273       .  A
C30        C1681   1.502       .  S
C31          O36   1.276       .  A
C31          O34   1.271       .  A
C31        C1669   1.501       .  S
Cd32         O39   2.363       .  S
Cd32         O38   2.464       .  S
Cd32         O37   2.392       .  S
Cd32         O33   2.465       .  S
Cd32         O36   2.511       .  S
Cd32         O34   2.442       .  S
C35          O39   1.264       .  A
C35        C1720   1.481       .  S
O40          C43   1.269       .  A
O40         Cd45   2.490       .  S
C41          O50   1.265   1_554  A
C41          O46   1.270       .  A
C41        C1657   1.480   1_554  S
O42          C48   1.268       .  A
O42         Cd45   2.498       .  S
C43          O51   1.269       .  A
C43        C1624   1.498       .  S
C44          O49   1.266       .  A
C44          O47   1.267       .  A
C44        C1633   1.500       .  S
Cd45         O52   2.433   1_554  S
Cd45         O51   2.491       .  S
Cd45         O50   2.412   1_554  S
Cd45         O46   2.481       .  S
Cd45         O49   2.492       .  S
Cd45         O47   2.515       .  S
C48          O52   1.265   1_554  A
C48        C1645   1.486   1_554  S
O53          C56   1.274       .  A
O53         Cd58   2.478       .  S
C54          O63   1.264       .  A
C54          O59   1.275       .  A
C54        C1648   1.483       .  S
O55          C61   1.263       .  A
O55         Cd58   2.489       .  S
C56          O64   1.268       .  A
C56        C1585   1.491       .  S
C57          O62   1.272       .  A
C57          O60   1.266       .  A
C57        C1597   1.500       .  S
Cd58         O65   2.479       .  S
Cd58         O64   2.453       .  S
Cd58         O63   2.390       .  S
Cd58         O59   2.522       .  S
Cd58         O62   2.514       .  S
Cd58         O60   2.484       .  S
C61          O65   1.266       .  A
C61        C1609   1.492       .  S
O66          C69   1.265       .  A
O66         Cd71   2.478       .  S
C67          O76   1.264       .  A
C67          O72   1.272       .  A
C67        C1612   1.496       .  S
O68          C74   1.264       .  A
O68         Cd71   2.466       .  S
C69          O77   1.270       .  A
C69        C1573   1.501   1_556  S
C70          O75   1.265       .  A
C70          O73   1.267       .  A
C70        C1744   1.487       .  S
Cd71         O78   2.414       .  S
Cd71         O77   2.532       .  S
Cd71         O76   2.452       .  S
Cd71         O72   2.525       .  S
Cd71         O75   2.469       .  S
Cd71         O73   2.507       .  S
C74          O78   1.265       .  A
C74        C1660   1.472       .  S
O79          C82   1.269       .  A
O79         Cd84   2.446       .  S
C80          O89   1.267       .  A
C80          O85   1.267       .  A
C80        C1549   1.477   1_455  S
O81          C87   1.263       .  A
O81         Cd84   2.466       .  S
C82          O90   1.267       .  A
C82        C1561   1.482   1_455  S
C83          O88   1.261       .  A
C83          O86   1.272       .  A
C83        C1600   1.501       .  S
Cd84         O91   2.549       .  S
Cd84         O90   2.452       .  S
Cd84         O89   2.427       .  S
Cd84         O85   2.448       .  S
Cd84         O88   2.453   1_455  S
Cd84         O86   2.553   1_455  S
C87          O91   1.270       .  A
C87        C1537   1.497       .  S
O92          C95   1.261       .  A
O92         Cd97   2.462       .  S
C93         O102   1.262       .  A
C93          O98   1.268       .  A
C93        C1528   1.486       .  S
O94         C100   1.266       .  A
O94         Cd97   2.479       .  S
C95         O103   1.267       .  A
C95        C1513   1.488       .  S
C96         O101   1.267       .  A
C96          O99   1.270       .  A
C96        C1501   1.486       .  S
Cd97        O104   2.421       .  S
Cd97        O103   2.522       .  S
Cd97        O102   2.442       .  S
Cd97         O98   2.519       .  S
Cd97        O101   2.454       .  S
Cd97         O99   2.485       .  S
C100        O104   1.263       .  A
C100       C1552   1.477       .  S
O105        C108   1.266       .  A
O105       Cd110   2.447       .  S
C106        O115   1.264       .  A
C106        O111   1.261       .  A
C106       C1525   1.488       .  S
O107        C113   1.263       .  A
O107       Cd110   2.425       .  S
C108        O116   1.268       .  A
C108       C1489   1.493   1_565  S
C109        O114   1.268       .  A
C109        O112   1.268       .  A
C109       C1705   1.493       .  S
Cd110       O117   2.492       .  S
Cd110       O116   2.516       .  S
Cd110       O115   2.499       .  S
Cd110       O111   2.462       .  S
Cd110       O114   2.481       .  S
Cd110       O112   2.485       .  S
C113        O117   1.270       .  A
C113       C1564   1.483       .  S
O118        C121   1.273       .  A
O118       Cd123   2.518       .  S
C119        O128   1.263       .  A
C119        O124   1.276       .  A
C119       C1477   1.484       .  S
O120        C126   1.273   1_554  A
O120       Cd123   2.484       .  S
C121        O129   1.270       .  A
C121       C1441   1.502       .  S
C122        O127   1.271       .  A
C122        O125   1.270       .  A
C122       C1453   1.498       .  S
Cd123       O130   2.390       .  S
Cd123       O129   2.455       .  S
Cd123       O128   2.388       .  S
Cd123       O124   2.517       .  S
Cd123       O127   2.467       .  S
Cd123       O125   2.485       .  S
C126        O130   1.265   1_556  A
C126       C1468   1.474       .  S
O131        C134   1.265       .  A
O131       Cd136   2.460       .  S
C132        O141   1.268       .  A
C132        O137   1.264       .  A
C132       C1465   1.475       .  S
O133        C139   1.265       .  A
O133       Cd136   2.464       .  S
C134        O142   1.268       .  A
C134       C1432   1.484       .  S
C135        O140   1.267       .  A
C135        O138   1.266       .  A
C135       C1408   1.492       .  S
Cd136       O143   2.504       .  S
Cd136       O142   2.480       .  S
Cd136       O141   2.483       .  S
Cd136       O137   2.426       .  S
Cd136       O140   2.499       .  S
Cd136       O138   2.467       .  S
C139        O143   1.268       .  A
C139       C1417   1.490       .  S
O144        C147   1.278       .  A
O144       Cd149   2.498       .  S
C145        O154   1.268       .  A
C145        O150   1.282       .  A
C145       C1480   1.487       .  S
O146        C152   1.279       .  A
O146       Cd149   2.456       .  S
C147        O155   1.272       .  A
C147       C1396   1.490       .  S
C148        O153   1.277       .  A
C148        O151   1.272       .  A
C148       C1381   1.487   1_556  S
Cd149       O156   2.373       .  S
Cd149       O155   2.442       .  S
Cd149       O154   2.394       .  S
Cd149       O150   2.478       .  S
Cd149       O153   2.450       .  S
Cd149       O151   2.440       .  S
C152        O156   1.271       .  A
C152       C1429   1.475       .  S
O157        C160   1.275       .  A
O157       Cd162   2.465       .  S
C158        O167   1.269       .  A
C158        O163   1.272       .  A
C158       C1672   1.502       .  S
O159        C165   1.274       .  A
O159       Cd162   2.503       .  S
C160        O168   1.267       .  A
C160       C1369   1.480       .  S
C161        O166   1.262       .  A
C161        O164   1.276       .  A
C161       C1357   1.470       .  S
Cd162       O169   2.470       .  S
Cd162       O168   2.423       .  S
Cd162       O167   2.468       .  S
Cd162       O163   2.510       .  S
Cd162       O166   2.376       .  S
Cd162       O164   2.525       .  S
C165        O169   1.267       .  A
C165       C1420   1.493       .  S
O170        C173   1.267       .  A
O170       Cd175   2.486       .  S
C171        O180   1.267       .  A
C171        O176   1.269       .  A
C171       C1360   1.490       .  S
O172        C178   1.266       .  A
O172       Cd175   2.470       .  S
C173        O181   1.268       .  A
C173       C1321   1.503       .  S
C174        O179   1.268       .  A
C174        O177   1.265       .  A
C174       C1336   1.506       .  S
Cd175       O182   2.472       .  S
Cd175       O181   2.527       .  S
Cd175       O180   2.464       .  S
Cd175       O176   2.492       .  S
Cd175       O179   2.557       .  S
Cd175       O177   2.531       .  S
C178        O182   1.268       .  A
C178       C1345   1.488       .  S
O183        C186   1.269       .  A
O183       Cd188   2.533       .  S
C184        O193   1.265       .  A
C184        O189   1.274       .  A
C184       C1348   1.492       .  S
O185        C191   1.266       .  A
O185       Cd188   2.463       .  S
C186        O194   1.269       .  A
C186       C1297   1.507       .  S
C187        O192   1.268       .  A
C187        O190   1.270       .  A
C187       C1309   1.510       .  S
Cd188       O195   2.444       .  S
Cd188       O194   2.492       .  S
Cd188       O193   2.431       .  S
Cd188       O189   2.509       .  S
Cd188       O192   2.504       .  S
Cd188       O190   2.556       .  S
C191        O195   1.266       .  A
C191       C1372   1.481       .  S
O196        C199   1.263       .  A
O196       Cd201   2.466   1_545  S
C197        O206   1.262       .  A
C197        O202   1.270       .  A
C197       C1285   1.488       .  S
O198        C204   1.263       .  A
O198       Cd201   2.428       .  S
C199        O207   1.266   1_545  A
C199       C1261   1.492       .  S
C200        O205   1.266       .  A
C200        O203   1.268   1_565  A
C200       C1540   1.499       .  S
Cd201       O208   2.469       .  S
Cd201       O207   2.527       .  S
Cd201       O206   2.441   1_565  S
Cd201       O202   2.519   1_565  S
Cd201       O205   2.484       .  S
Cd201       O203   2.518   1_565  S
C204        O208   1.266       .  A
C204       C1276   1.476       .  S
O209        C212   1.262       .  A
O209       Cd214   2.487       .  S
C210        O219   1.262       .  A
C210        O215   1.270       .  A
C210       C1273   1.477       .  S
O211        C217   1.270       .  A
O211       Cd214   2.475       .  S
C212        O220   1.271       .  A
C212       C1312   1.512   1_565  S
C213        O218   1.267       .  A
C213        O216   1.265       .  A
C213       C1240   1.501       .  S
Cd214       O221   2.425       .  S
Cd214       O220   2.595       .  S
Cd214       O219   2.406       .  S
Cd214       O215   2.477       .  S
Cd214       O218   2.524       .  S
Cd214       O216   2.491       .  S
C217        O221   1.263       .  A
C217       C1249   1.478       .  S
O222        C225   1.270       .  A
O222       Cd227   2.499       .  S
C223        O232   1.268       .  A
C223        O228   1.261       .  A
C223       C1252   1.469   1_545  S
O224        C230   1.261       .  A
O224       Cd227   2.445       .  S
C225        O233   1.268       .  A
C225       C1393   1.493       .  S
C226        O231   1.269       .  A
C226        O229   1.271       .  A
C226       C1228   1.504       .  S
Cd227       O234   2.501       .  S
Cd227       O233   2.482       .  S
Cd227       O232   2.488       .  S
Cd227       O228   2.403       .  S
Cd227       O231   2.467       .  S
Cd227       O229   2.528       .  S
C230        O234   1.266       .  A
C230       C1288   1.482       .  S
O235        C238   1.267       .  A
O235       Cd240   2.451       .  S
C236        O245   1.271       .  A
C236        O241   1.262       .  A
C236       C1201   1.470       .  S
O237        C243   1.262   1_554  A
O237       Cd240   2.456   1_554  S
C238        O246   1.269       .  A
C238       C1264   1.492       .  S
C239        O244   1.267       .  A
C239        O242   1.271       .  A
C239       C1588   1.490       .  S
Cd240       O247   2.519       .  S
Cd240       O246   2.489       .  S
Cd240       O245   2.496   1_556  S
Cd240       O241   2.383   1_556  S
Cd240       O244   2.440       .  S
Cd240       O242   2.513       .  S
C243        O247   1.266       .  A
C243       C1213   1.485       .  S
O248        C251   1.265       .  A
O248       Cd253   2.512       .  S
C249        O258   1.264       .  A
C249        O254   1.267       .  A
C249       C1204   1.475       .  S
O250        C256   1.271       .  A
O250       Cd253   2.501       .  S
C251        O259   1.263       .  A
C251       C1177   1.494       .  S
C252        O257   1.269       .  A
C252        O255   1.261       .  A
C252       C1333   1.507       .  S
Cd253       O260   2.394       .  S
Cd253       O259   2.486       .  S
Cd253       O258   2.434       .  S
Cd253       O254   2.452       .  S
Cd253       O257   2.573       .  S
Cd253       O255   2.500       .  S
C256        O260   1.264       .  A
C256       C1192   1.477       .  S
O261        C264   1.268       .  A
O261       Cd266   2.486       .  S
C262        O271   1.261       .  A
C262        O267   1.272       .  A
C262       C1216   1.488       .  S
O263        C269   1.269       .  A
O263       Cd266   2.468       .  S
C264        O272   1.266       .  A
C264       C1456   1.497       .  S
C265        O270   1.268       .  A
C265        O268   1.267       .  A
C265       C1165   1.497       .  S
Cd266       O273   2.432       .  S
Cd266       O272   2.508       .  S
Cd266       O271   2.425       .  S
Cd266       O267   2.553       .  S
Cd266       O270   2.508       .  S
Cd266       O268   2.502       .  S
C269        O273   1.263       .  A
C269       C1189   1.480       .  S
O274        C277   1.267       .  A
O274       Cd279   2.547       .  S
C275        O284   1.265       .  A
C275        O280   1.273       .  A
C275       C1141   1.489       .  S
O276        C282   1.260       .  A
O276       Cd279   2.417       .  S
C277        O285   1.264       .  A
C277       C1684   1.505       .  S
C278        O283   1.263       .  A
C278        O281   1.266       .  A
C278       C1405   1.486       .  S
Cd279       O286   2.491       .  S
Cd279       O285   2.504       .  S
Cd279       O284   2.440       .  S
Cd279       O280   2.508       .  S
Cd279       O283   2.484       .  S
Cd279       O281   2.504       .  S
C282        O286   1.265       .  A
C282       C1156   1.470       .  S
O287        C290   1.270       .  A
O287       Cd292   2.502       .  S
C288        O297   1.263       .  A
C288        O293   1.274       .  A
C288       C1129   1.486       .  S
O289        C295   1.265       .  A
O289       Cd292   2.486       .  S
C290        O298   1.268       .  A
C290       C1516   1.490       .  S
C291        O296   1.267       .  A
C291        O294   1.267       .  A
C291       C1117   1.485       .  S
Cd292       O299   2.449       .  S
Cd292       O298   2.447       .  S
Cd292       O297   2.399       .  S
Cd292       O293   2.514       .  S
Cd292       O296   2.459       .  S
Cd292       O294   2.516       .  S
C295        O299   1.263       .  A
C295       C1144   1.483       .  S
O300        C303   1.264       .  A
O300       Cd305   2.459       .  S
C301        O310   1.269   1_556  A
C301        O306   1.268       .  A
C301       C1153   1.473       .  S
O302        C308   1.269       .  A
O302       Cd305   2.431       .  S
C303        O311   1.270       .  A
C303       C1636   1.498       .  S
C304        O309   1.266       .  A
C304        O307   1.265       .  A
C304       C1108   1.477       .  S
Cd305       O312   2.425       .  S
Cd305       O311   2.517       .  S
Cd305       O310   2.452       .  S
Cd305       O306   2.417   1_554  S
Cd305       O309   2.461       .  S
Cd305       O307   2.491       .  S
C308        O312   1.268       .  A
C308       C1132   1.479       .  S
O313        C316   1.269       .  A
O313       Cd318   2.495       .  S
C314        O323   1.273       .  A
C314        O319   1.261       .  A
C314       C1084   1.473       .  S
O315        C321   1.261       .  A
O315       Cd318   2.422       .  S
C316        O324   1.270       .  A
C316       C1069   1.497       .  S
C317        O322   1.271       .  A
C317        O320   1.270       .  A
C317       C1576   1.499       .  S
Cd318       O325   2.517       .  S
Cd318       O324   2.484       .  S
Cd318       O323   2.524       .  S
Cd318       O319   2.377       .  S
Cd318       O322   2.486       .  S
Cd318       O320   2.483       .  S
C321        O325   1.267       .  A
C321       C1093   1.477       .  S
O326        C329   1.267       .  A
O326       Cd331   2.474       .  S
C327        O336   1.261       .  A
C327        O332   1.271       .  A
C327       C1096   1.489       .  S
O328        C334   1.267       .  A
O328       Cd331   2.449       .  S
C329        O337   1.264       .  A
C329       C1045   1.487       .  S
C330        O335   1.265       .  A
C330        O333   1.267       .  A
C330       C1033   1.493       .  S
Cd331       O338   2.446       .  S
Cd331       O337   2.495       .  S
Cd331       O336   2.431       .  S
Cd331       O332   2.541       .  S
Cd331       O335   2.467       .  S
Cd331       O333   2.513       .  S
C334        O338   1.264       .  A
C334       C1060   1.477       .  S
O339        C342   1.261       .  A
O339       Cd344   2.475       .  S
C340        O349   1.262       .  A
C340        O345   1.269       .  A
C340       C1057   1.476       .  S
O341        C347   1.263       .  A
O341       Cd344   2.422       .  S
C342        O350   1.272       .  A
C342       C1021   1.509       .  S
C343        O348   1.270   1_545  A
C343        O346   1.263   1_545  A
C343       C1168   1.500       .  S
Cd344       O351   2.497       .  S
Cd344       O350   2.593       .  S
Cd344       O349   2.387       .  S
Cd344       O345   2.490       .  S
Cd344       O348   2.531       .  S
Cd344       O346   2.476       .  S
C347        O351   1.272       .  A
C347       C1081   1.483       .  S
O352        C355   1.269       .  A
O352       Cd357   2.520       .  S
C353        O362   1.270       .  A
C353        O358   1.261       .  A
C353        C997   1.488       .  S
O354        C360   1.267       .  A
O354       Cd357   2.487       .  S
C355        O363   1.265       .  A
C355        C985   1.501       .  S
C356        O361   1.270       .  A
C356        O359   1.266       .  A
C356       C1237   1.497       .  S
Cd357       O364   2.452       .  S
Cd357       O363   2.509       .  S
Cd357       O362   2.512       .  S
Cd357       O358   2.433       .  S
Cd357       O361   2.522       .  S
Cd357       O359   2.508       .  S
C360        O364   1.263       .  A
C360       C1012   1.484       .  S
O365        C368   1.269       .  A
O365       Cd370   2.453       .  S
C366        O375   1.266       .  A
C366        O371   1.267       .  A
C366        C973   1.468       .  S
O367        C373   1.265       .  A
O367       Cd370   2.468       .  S
C368        O376   1.267       .  A
C368       C1048   1.488       .  S
C369        O374   1.270   1_655  A
C369        O372   1.266       .  A
C369        C964   1.491       .  S
Cd370       O377   2.449       .  S
Cd370       O376   2.492       .  S
Cd370       O375   2.468       .  S
Cd370       O371   2.429       .  S
Cd370       O374   2.501       .  S
Cd370       O372   2.464   1_455  S
C373        O377   1.267       .  A
C373       C1000   1.477       .  S
O378        C381   1.266       .  A
O378       Cd383   2.514       .  S
C379        O388   1.268       .  A
C379        O384   1.264       .  A
C379        C976   1.478       .  S
O380        C386   1.269   1_655  A
O380       Cd383   2.501       .  S
C381        O389   1.262       .  A
C381       C1504   1.490       .  S
C382        O387   1.269       .  A
C382        O385   1.263       .  A
C382        C949   1.501       .  S
Cd383       O390   2.441   1_655  S
Cd383       O389   2.465       .  S
Cd383       O388   2.458       .  S
Cd383       O384   2.429       .  S
Cd383       O387   2.536       .  S
Cd383       O385   2.487       .  S
C386        O390   1.263       .  A
C386       C1009   1.483       .  S
O391        C394   1.273       .  A
O391       Cd396   2.538       .  S
C392        O401   1.265       .  A
C392        O397   1.277       .  A
C392        C937   1.496       .  S
O393        C399   1.265       .  A
O393       Cd396   2.487       .  S
C394        O402   1.267       .  A
C394       C1444   1.503       .  S
C395        O400   1.270       .  A
C395        O398   1.270       .  A
C395       C1024   1.510       .  S
Cd396       O403   2.449       .  S
Cd396       O402   2.451       .  S
Cd396       O401   2.408       .  S
Cd396       O397   2.535       .  S
Cd396       O400   2.509       .  S
Cd396       O398   2.545       .  S
C399        O403   1.264       .  A
C399        C925   1.487       .  S
O404        C407   1.275       .  A
O404       Cd409   2.533       .  S
C405        O414   1.266       .  A
C405        O410   1.276       .  A
C405        C928   1.484       .  S
O406        C412   1.276       .  A
O406       Cd409   2.490       .  S
C407        O415   1.270       .  A
C407        C892   1.507       .  S
C408        O413   1.275       .  A
C408        O411   1.269       .  A
C408        C904   1.489       .  S
Cd409       O416   2.355       .  S
Cd409       O415   2.460       .  S
Cd409       O414   2.438       .  S
Cd409       O410   2.505       .  S
Cd409       O413   2.479       .  S
Cd409       O411   2.440       .  S
C412        O416   1.265       .  A
C412        C913   1.461       .  S
O417        C420   1.265       .  A
O417       Cd422   2.437       .  S
C418        O427   1.266   1_655  A
C418        O423   1.268       .  A
C418        C916   1.479   1_655  S
O419        C425   1.265   1_655  A
O419       Cd422   2.497       .  S
C420        O428   1.271       .  A
C420       C1120   1.495       .  S
C421        O426   1.270       .  A
C421        O424   1.262       .  A
C421        C952   1.500       .  S
Cd422       O429   2.477   1_655  S
Cd422       O428   2.527       .  S
Cd422       O427   2.429   1_655  S
Cd422       O423   2.447       .  S
Cd422       O426   2.551       .  S
Cd422       O424   2.482       .  S
C425        O429   1.267       .  A
C425        C940   1.488       .  S
O430        C433   1.271       .  A
O430       Cd435   2.446       .  S
C431        O440   1.265       .  A
C431        O436   1.277       .  A
C431        C868   1.484       .  S
O432        C438   1.265       .  A
O432       Cd435   2.403       .  S
C433        O441   1.276       .  A
C433       C1072   1.493       .  S
C434        O439   1.271       .  A
C434        O437   1.274       .  A
C434       C1732   1.486       .  S
Cd435       O442   2.502       .  S
Cd435       O441   2.509       .  S
Cd435       O440   2.416       .  S
Cd435       O436   2.527       .  S
Cd435       O439   2.454       .  S
Cd435       O437   2.476       .  S
C438        O442   1.276       .  A
C438        C880   1.479       .  S
O443        C446   1.265       .  A
O443       Cd448   2.402       .  S
C444        O453   1.265       .  A
C444        O449   1.270       .  A
C444        C877   1.486       .  S
O445        C451   1.261       .  A
O445       Cd448   2.454       .  S
C446        O454   1.266       .  A
C446        C853   1.468       .  S
C447        O452   1.259       .  A
C447        O450   1.269       .  A
C447        C901   1.491       .  S
Cd448       O455   2.524       .  S
Cd448       O454   2.455       .  S
Cd448       O453   2.451       .  S
Cd448       O449   2.491       .  S
Cd448       O452   2.451       .  S
Cd448       O450   2.526       .  S
C451        O455   1.269       .  A
C451        C841   1.493       .  S
O456        C459   1.268       .  A
O456       Cd461   2.557       .  S
C457        O466   1.265       .  A
C457        O462   1.271       .  A
C457        C865   1.493       .  S
O458        C464   1.265       .  A
O458       Cd461   2.415       .  S
C459        O467   1.264       .  A
C459       C1300   1.501       .  S
C460        O465   1.262       .  A
C460        O463   1.274       .  A
C460        C988   1.503       .  S
Cd461       O468   2.422       .  S
Cd461       O467   2.479       .  S
Cd461       O466   2.452       .  S
Cd461       O462   2.509       .  S
Cd461       O465   2.445       .  S
Cd461       O463   2.560       .  S
C464        O468   1.267       .  A
C464        C856   1.464       .  S
O469        C472   1.269       .  A
O469       Cd474   2.492       .  S
C470        O479   1.262       .  A
C470        O475   1.272       .  A
C470        C817   1.485       .  S
O471        C477   1.266       .  A
O471       Cd474   2.506       .  S
C472        O480   1.269       .  A
C472        C805   1.496       .  S
C473        O478   1.267       .  A
C473        O476   1.267       .  A
C473       C1324   1.498       .  S
Cd474       O481   2.469       .  S
Cd474       O480   2.500       .  S
Cd474       O479   2.412       .  S
Cd474       O475   2.510       .  S
Cd474       O478   2.495       .  S
Cd474       O476   2.533       .  S
C477        O481   1.263       .  A
C477        C832   1.484       .  S
O482        C485   1.262       .  A
O482       Cd487   2.439       .  S
C483        O492   1.270       .  A
C483        O488   1.267       .  A
C483        C796   1.479       .  S
O484        C490   1.267       .  A
O484       Cd487   2.428       .  S
C485        O493   1.269       .  A
C485        C781   1.489       .  S
C486        O491   1.266       .  A
C486        O489   1.264       .  A
C486       C1696   1.478       .  S
Cd487       O494   2.440       .  S
Cd487       O493   2.501       .  S
Cd487       O492   2.465       .  S
Cd487       O488   2.411       .  S
Cd487       O491   2.478       .  S
Cd487       O489   2.475       .  S
C490        O494   1.270       .  A
C490        C820   1.476       .  S
O495        C498   1.267       .  A
O495       Cd500   2.500       .  S
C496        O505   1.266       .  A
C496        O501   1.272       .  A
C496        C829   1.493       .  S
O497        C503   1.263       .  A
O497       Cd500   2.434       .  S
C498        O506   1.265       .  A
C498        C772   1.495       .  S
C499        O504   1.264       .  A
C499        O502   1.267       .  A
C499        C844   1.494       .  S
Cd500       O507   2.464       .  S
Cd500       O506   2.485       .  S
Cd500       O505   2.444       .  S
Cd500       O501   2.508       .  S
Cd500       O504   2.477       .  S
Cd500       O502   2.524       .  S
C503        O507   1.265       .  A
C503        C793   1.476       .  S
O508        C511   1.264       .  A
O508       Cd513   2.513       .  S
C509        O518   1.262       .  A
C509        O514   1.268       .  A
C509        C748   1.491       .  S
O510        C516   1.266       .  A
O510       Cd513   2.468       .  S
C511        O519   1.266       .  A
C511        C808   1.492       .  S
C512        O517   1.269       .  A
C512        O515   1.268       .  A
C512       C1180   1.490       .  S
Cd513       O520   2.437       .  S
Cd513       O519   2.504       .  S
Cd513       O518   2.467       .  S
Cd513       O514   2.528       .  S
Cd513       O517   2.477       .  S
Cd513       O515   2.488       .  S
C516        O520   1.262       .  A
C516        C760   1.475       .  S
O521        C524   1.265       .  A
O521       Cd526   2.458       .  S
C522        O531   1.263       .  A
C522        O527   1.263       .  A
C522        C745   1.496       .  S
O523        C529   1.262       .  A
O523       Cd526   2.411       .  S
C524        O532   1.272       .  A
C524       C1621   1.496       .  S
C525        O530   1.269       .  A
C525        O528   1.270       .  A
C525        C721   1.491   1_565  S
Cd526       O533   2.497       .  S
Cd526       O532   2.513       .  S
Cd526       O531   2.512       .  S
Cd526       O527   2.504       .  S
Cd526       O530   2.473       .  S
Cd526       O528   2.474       .  S
C529        O533   1.270       .  A
C529        C733   1.478       .  S
O534        C537   1.263       .  A
O534       Cd539   2.404       .  S
C535        O544   1.263       .  A
C535        O540   1.268       .  A
C535        C736   1.479       .  S
O536        C542   1.263       .  A
O536       Cd539   2.486       .  S
C537        O545   1.270       .  A
C537        C757   1.479       .  S
C538        O543   1.262       .  A
C538        O541   1.266       .  A
C538       C1036   1.491       .  S
Cd539       O546   2.531       .  S
Cd539       O545   2.488       .  S
Cd539       O544   2.430       .  S
Cd539       O540   2.471       .  S
Cd539       O543   2.456       .  S
Cd539       O541   2.523       .  S
C542        O546   1.268       .  A
C542        C709   1.499       .  S
O547        C550   1.264       .  A
O547       Cd552   2.428       .  S
C548        O557   1.267       .  A
C548        O553   1.267       .  A
C548        C697   1.476       .  S
O549        C555   1.269       .  A
O549       Cd552   2.456       .  S
C550        O558   1.271       .  A
C550       C1492   1.493       .  S
C551        O556   1.266       .  A
C551        O554   1.267       .  A
C551        C784   1.490       .  S
Cd552       O559   2.437       .  S
Cd552       O558   2.521       .  S
Cd552       O557   2.422       .  S
Cd552       O553   2.443       .  S
Cd552       O556   2.461       .  S
Cd552       O554   2.478       .  S
C555        O559   1.267       .  A
C555        C688   1.480       .  S
O560        C563   1.281       .  A
O560       Cd565   2.464       .  S
C561        O570   1.273       .  A
C561        O566   1.281       .  A
C561        C685   1.488   1_565  S
O562        C568   1.282       .  A
O562       Cd565   2.429       .  S
C563        O571   1.275       .  A
C563        C961   1.486       .  S
C564        O569   1.278       .  A
C564        O567   1.275       .  A
C564        C712   1.495       .  S
Cd565       O572   2.391       .  S
Cd565       O571   2.417       .  S
Cd565       O570   2.407       .  S
Cd565       O566   2.472       .  S
Cd565       O569   2.464       .  S
Cd565       O567   2.457       .  S
C568        O572   1.277       .  A
C568        C673   1.478       .  S
O573        C576   1.265       .  A
O573       Cd578   2.472       .  S
C574        O583   1.263       .  A
C574        O579   1.271   1_655  A
C574        C676   1.480       .  S
O575        C581   1.264   1_455  A
O575       Cd578   2.470       .  S
C576        O584   1.270       .  A
C576       C1225   1.502       .  S
C577        O582   1.264       .  A
C577        O580   1.267       .  A
C577        C664   1.492       .  S
Cd578       O585   2.429   1_455  S
Cd578       O584   2.544       .  S
Cd578       O583   2.427   1_455  S
Cd578       O579   2.509       .  S
Cd578       O582   2.462       .  S
Cd578       O580   2.504       .  S
C581        O585   1.261       .  A
C581        C700   1.472       .  S
O586        C589   1.266       .  A
O586       Cd591   2.442   1_455  S
C587        O596   1.263       .  A
C587        O592   1.268       .  A
C587        C649   1.479       .  S
O588        C594   1.271       .  A
O588       Cd591   2.483       .  S
C589        O597   1.269       .  A
C589       C1384   1.486       .  S
C590        O595   1.270       .  A
C590        O593   1.266       .  A
C590        C661   1.491       .  S
Cd591       O598   2.401       .  S
Cd591       O597   2.496   1_655  S
Cd591       O596   2.446       .  S
Cd591       O592   2.458       .  S
Cd591       O595   2.501   1_655  S
Cd591       O593   2.448   1_655  S
C594        O598   1.262       .  A
C594        C640   1.472       .  S
O599        C602   1.271       .  A
O599       Cd604   2.464       .  S
C600        O609   1.262       .  A
C600        O605   1.275       .  A
C600        C628   1.486       .  S
O601        C607   1.274       .  A
O601       Cd604   2.465       .  S
C602        O610   1.269       .  A
C602        C724   1.488       .  S
C603        O608   1.273       .  A
C603        O606   1.266       .  A
C603       C1105   1.490       .  S
Cd604       O611   2.392       .  S
Cd604       O610   2.481       .  S
Cd604       O609   2.386       .  S
Cd604       O605   2.516       .  S
Cd604       O608   2.482       .  S
Cd604       O606   2.421       .  S
C607        O611   1.267       .  A
C607        C637   1.478       .  S
O612        C615   1.274       .  A
O612       Cd617   2.469       .  S
C613        O622   1.264       .  A
C613        O618   1.277       .  A
C613        C652   1.462       .  S
O614        C620   1.278       .  A
O614       Cd617   2.476       .  S
C615        O623   1.273       .  A
C615        C769   1.497       .  S
C616        O621   1.277       .  A
C616        O619   1.271       .  A
C616        C889   1.503       .  S
Cd617       O624   2.402       .  S
Cd617       O623   2.459       .  S
Cd617       O622   2.338       .  S
Cd617       O618   2.480       .  S
Cd617       O621   2.537       .  S
Cd617       O619   2.444       .  S
C620        O624   1.264       .  A
C620        C625   1.473       .  S
C625        C626   1.397       .  A
C625        C630   1.411       .  A
C626        C627   1.397       .  A
C626        H631   1.084       .  S
C627        C628   1.417       .  A
C627        O632   1.372       .  S
C628        C629   1.405       .  A
C629        C630   1.405       .  A
C629        H633   1.083       .  S
C630        O634   1.372       .  S
O632        H636   0.991       .  S
O634        H635   0.992       .  S
C637        C638   1.407       .  A
C637        C642   1.409       .  A
C638        C639   1.397       .  A
C638        H643   1.084       .  S
C639        C640   1.405       .  A
C639        O644   1.371       .  S
C640        C641   1.405       .  A
C641        C642   1.399       .  A
C641        H645   1.084       .  S
C642        O646   1.371       .  S
O644        H648   0.991       .  S
O646        H647   0.992       .  S
C649        C650   1.403       .  A
C649        C654   1.416       .  A
C650        C651   1.394       .  A
C650        H655   1.083       .  S
C651        C652   1.406       .  A
C651        O656   1.373       .  S
C652        C653   1.399       .  A
C653        C654   1.401       .  A
C653        H657   1.084       .  S
C654        O658   1.371       .  S
O656        H660   0.992       .  S
O658        H659   0.992       .  S
C661        C662   1.406       .  A
C661        C666   1.411       .  A
C662        C663   1.401       .  A
C662        H667   1.083       .  S
C663        C664   1.411       .  A
C663        O668   1.371       .  S
C664        C665   1.409       .  A
C665        C666   1.407       .  A
C665        H669   1.083       .  S
C666        O670   1.371       .  S
O668        H672   0.992       .  S
O670        H671   0.992       .  S
C673        C674   1.407       .  A
C673        C678   1.406   1_565  A
C674        C675   1.402       .  A
C674        H679   1.084       .  S
C675        C676   1.407   1_565  A
C675        O680   1.371       .  S
C676        C677   1.407       .  A
C677        C678   1.400       .  A
C677        H681   1.084       .  S
C678        O682   1.371       .  S
O680        H684   0.992       .  S
O682        H683   0.992       .  S
C685        C686   1.408       .  A
C685        C690   1.409       .  A
C686        C687   1.402       .  A
C686        H691   1.083       .  S
C687        C688   1.408       .  A
C687        O692   1.373       .  S
C688        C689   1.407       .  A
C689        C690   1.403       .  A
C689        H693   1.084       .  S
C690        O694   1.371       .  S
O692        H696   0.994       .  S
O694        H695   0.992       .  S
C697        C698   1.404       .  A
C697        C702   1.411       .  A
C698        C699   1.395       .  A
C698        H703   1.084       .  S
C699        C700   1.408       .  A
C699        O704   1.372       .  S
C700        C701   1.403       .  A
C701        C702   1.398       .  A
C701        H705   1.084       .  S
C702        O706   1.372       .  S
O704        H708   0.992       .  S
O706        H707   0.993       .  S
C709        C710   1.407       .  A
C709        C714   1.416       .  A
C710        C711   1.408       .  A
C710        H715   1.083       .  S
C711        C712   1.415       .  A
C711        O716   1.372       .  S
C712        C713   1.404       .  A
C713        C714   1.405       .  A
C713        H717   1.084       .  S
C714        O718   1.371       .  S
O716        H720   0.992       .  S
O718        H719   0.992       .  S
C721        C722   1.406       .  A
C721        C726   1.413       .  A
C722        C723   1.403       .  A
C722        H727   1.083       .  S
C723        C724   1.408       .  A
C723        O728   1.371       .  S
C724        C725   1.407       .  A
C725        C726   1.406       .  A
C725        H729   1.084       .  S
C726        O730   1.372   1_545  S
O728        H732   0.991       .  S
O730        H731   0.992       .  S
C733        C734   1.407       .  A
C733        C738   1.407       .  A
C734        C735   1.398       .  A
C734        H739   1.084       .  S
C735        C736   1.408       .  A
C735        O740   1.372       .  S
C736        C737   1.408       .  A
C737        C738   1.399       .  A
C737        H741   1.084       .  S
C738        O742   1.372       .  S
O740        H744   0.992       .  S
O742        H743   0.992       .  S
C745        C746   1.409   1_565  A
C745        C750   1.413       .  A
C746        C747   1.407       .  A
C746        H751   1.083       .  S
C747        C748   1.412       .  A
C747        O752   1.372       .  S
C748        C749   1.406   1_545  A
C749        C750   1.405       .  A
C749        H753   1.084       .  S
C750        O754   1.372       .  S
O752        H756   0.992       .  S
O754        H755   0.992       .  S
C757        C758   1.407   1_565  A
C757        C762   1.408   1_565  A
C758        C759   1.395       .  A
C758        H763   1.084   1_545  S
C759        C760   1.407       .  A
C759        O764   1.372       .  S
C760        C761   1.406       .  A
C761        C762   1.400       .  A
C761        H765   1.084       .  S
C762        O766   1.371       .  S
O764        H768   0.991       .  S
O766        H767   0.993       .  S
C769        C770   1.408       .  A
C769        C774   1.414       .  A
C770        C771   1.406       .  A
C770        H775   1.083       .  S
C771        C772   1.413       .  A
C771        O776   1.371       .  S
C772        C773   1.406       .  A
C773        C774   1.405       .  A
C773        H777   1.083       .  S
C774        O778   1.371       .  S
O776        H780   0.992       .  S
O778        H779   0.992       .  S
C781        C782   1.406       .  A
C781        C786   1.413       .  A
C782        C783   1.405       .  A
C782        H787   1.083       .  S
C783        C784   1.413       .  A
C783        O788   1.371       .  S
C784        C785   1.405       .  A
C785        C786   1.401       .  A
C785        H789   1.081       .  S
C786        O790   1.372       .  S
O788        H792   0.992       .  S
O790        H791   0.993       .  S
C793        C794   1.404       .  A
C793        C798   1.409       .  A
C794        C795   1.394       .  A
C794        H799   1.084       .  S
C795        C796   1.410       .  A
C795        O800   1.372       .  S
C796        C797   1.406       .  A
C797        C798   1.401       .  A
C797        H801   1.083       .  S
C798        O802   1.371       .  S
O800        H804   0.990       .  S
O802        H803   0.992       .  S
C805        C806   1.407       .  A
C805        C810   1.413       .  A
C806        C807   1.409       .  A
C806        H811   1.083       .  S
C807        C808   1.414       .  A
C807        O812   1.372       .  S
C808        C809   1.402       .  A
C809        C810   1.406       .  A
C809        H813   1.083       .  S
C810        O814   1.371       .  S
O812        H816   0.991       .  S
O814        H815   0.990       .  S
C817        C818   1.409       .  A
C817        C822   1.409       .  A
C818        C819   1.399       .  A
C818        H823   1.083       .  S
C819        C820   1.405       .  A
C819        O824   1.371       .  S
C820        C821   1.408       .  A
C821        C822   1.401       .  A
C821        H825   1.084       .  S
C822        O826   1.371       .  S
O824        H828   0.992       .  S
O826        H827   0.993       .  S
C829        C830   1.407       .  A
C829        C834   1.416       .  A
C830        C831   1.406       .  A
C830        H835   1.083       .  S
C831        C832   1.411       .  A
C831        O836   1.372       .  S
C832        C833   1.402       .  A
C833        C834   1.402       .  A
C833        H837   1.084       .  S
C834        O838   1.371       .  S
O836        H840   0.992       .  S
O838        H839   0.992       .  S
C841        C842   1.407       .  A
C841        C846   1.414       .  A
C842        C843   1.407       .  A
C842        H847   1.083       .  S
C843        C844   1.412       .  A
C843        O848   1.371       .  S
C844        C845   1.406       .  A
C845        C846   1.402       .  A
C845        H849   1.084       .  S
C846        O850   1.372       .  S
O848        H852   0.992       .  S
O850        H851   0.992       .  S
C853        C854   1.403       .  A
C853        C858   1.409       .  A
C854        C855   1.396       .  A
C854        H859   1.084       .  S
C855        C856   1.407       .  A
C855        O860   1.372       .  S
C856        C857   1.401       .  A
C857        C858   1.392       .  A
C857        H861   1.084       .  S
C858        O862   1.372       .  S
O860        H864   0.993       .  S
O862        H863   0.991       .  S
C865        C866   1.410       .  A
C865        C870   1.412       .  A
C866        C867   1.405       .  A
C866        H871   1.083       .  S
C867        C868   1.406       .  A
C867        O872   1.372       .  S
C868        C869   1.406       .  A
C869        C870   1.405       .  A
C869        H873   1.084       .  S
C870        O874   1.372       .  S
O872        H876   0.994       .  S
O874        H875   0.992       .  S
C877        C878   1.405       .  A
C877        C882   1.414       .  A
C878        C879   1.403       .  A
C878        H883   1.084       .  S
C879        C880   1.410       .  A
C879        O884   1.373       .  S
C880        C881   1.401       .  A
C881        C882   1.403       .  A
C881        H885   1.084       .  S
C882        O886   1.371       .  S
O884        H888   0.992       .  S
O886        H887   0.992       .  S
C889        C890   1.407       .  A
C889        C894   1.413       .  A
C890        C891   1.403       .  A
C890        H895   1.084       .  S
C891        C892   1.413   1_655  A
C891        O896   1.371   1_655  S
C892        C893   1.413   1_455  A
C893        C894   1.417       .  A
C893        H897   1.083       .  S
C894        O898   1.371       .  S
O896        H900   0.992       .  S
O898        H899   0.992       .  S
C901        C902   1.403       .  A
C901        C906   1.417       .  A
C902        C903   1.404       .  A
C902        H907   1.083       .  S
C903        C904   1.415       .  A
C903        O908   1.371       .  S
C904        C905   1.402       .  A
C905        C906   1.403       .  A
C905        H909   1.084       .  S
C906        O910   1.371       .  S
O908        H912   0.992       .  S
O910        H911   0.992       .  S
C913        C914   1.399       .  A
C913        C918   1.406       .  A
C914        C915   1.398       .  A
C914        H919   1.084       .  S
C915        C916   1.413       .  A
C915        O920   1.371       .  S
C916        C917   1.405   1_455  A
C917        C918   1.398   1_655  A
C917        H921   1.084       .  S
C918        O922   1.373   1_455  S
O920        H924   0.991       .  S
O922        H923   0.991       .  S
C925        C926   1.410       .  A
C925        C930   1.412       .  A
C926        C927   1.406       .  A
C926        H931   1.084       .  S
C927        C928   1.408       .  A
C927        O932   1.371       .  S
C928        C929   1.404       .  A
C929        C930   1.401       .  A
C929        H933   1.084       .  S
C930        O934   1.371       .  S
O932        H936   0.990       .  S
O934        H935   0.992       .  S
C937        C938   1.406       .  A
C937        C942   1.418       .  A
C938        C939   1.409       .  A
C938        H943   1.083       .  S
C939        C940   1.415       .  A
C939        O944   1.372       .  S
C940        C941   1.400       .  A
C941        C942   1.401       .  A
C941        H945   1.084       .  S
C942        O946   1.372       .  S
O944        H948   0.992       .  S
O946        H947   0.992       .  S
C949        C950   1.411       .  A
C949        C954   1.411       .  A
C950        C951   1.409       .  A
C950        H955   1.082       .  S
C951        C952   1.408       .  A
C951        O956   1.370       .  S
C952        C953   1.410       .  A
C953        C954   1.408       .  A
C953        H957   1.083       .  S
C954        O958   1.372       .  S
O956        H960   0.992       .  S
O958        H959   0.992       .  S
C961        C962   1.408       .  A
C961        C966   1.406       .  A
C962        C963   1.405       .  A
C962        H967   1.084       .  S
C963        C964   1.410       .  A
C963        O968   1.371       .  S
C964        C965   1.410       .  A
C965        C966   1.405       .  A
C965        H969   1.082       .  S
C966        O970   1.371       .  S
O968        H972   0.991       .  S
O970        H971   0.994       .  S
C973        C974   1.401       .  A
C973        C978   1.410   1_455  A
C974        C975   1.402       .  A
C974        H979   1.083       .  S
C975        C976   1.411   1_455  A
C975        O980   1.374       .  S
C976        C977   1.404       .  A
C977        C978   1.400       .  A
C977        H981   1.084       .  S
C978        O982   1.372       .  S
O980        H984   0.991       .  S
O982        H983   0.993       .  S
C985        C986   1.404       .  A
C985        C990   1.416       .  A
C986        C987   1.405       .  A
C986        H991   1.083       .  S
C987        C988   1.418       .  A
C987        O992   1.372       .  S
C988        C989   1.406       .  A
C989        C990   1.411       .  A
C989        H993   1.083       .  S
C990        O994   1.371       .  S
O992        H996   0.991       .  S
O994        H995   0.993       .  S
C997        C998   1.405       .  A
C997       C1002   1.417       .  A
C998        C999   1.403       .  A
C998       H1003   1.083       .  S
C999       C1000   1.412       .  A
C999       O1004   1.371       .  S
C1000      C1001   1.399       .  A
C1001      C1002   1.399       .  A
C1001      H1005   1.084       .  S
C1002      O1006   1.371       .  S
O1004      H1008   0.992       .  S
O1006      H1007   0.992       .  S
C1009      C1010   1.407       .  A
C1009      C1014   1.408       .  A
C1010      C1011   1.400       .  A
C1010      H1015   1.084       .  S
C1011      C1012   1.409       .  A
C1011      O1016   1.371       .  S
C1012      C1013   1.409       .  A
C1013      C1014   1.402       .  A
C1013      H1017   1.083       .  S
C1014      O1018   1.371       .  S
O1016      H1020   0.992       .  S
O1018      H1019   0.991       .  S
C1021      C1022   1.410       .  A
C1021      C1026   1.414       .  A
C1022      C1023   1.406       .  A
C1022      H1027   1.082       .  S
C1023      C1024   1.412       .  A
C1023      O1028   1.371       .  S
C1024      C1025   1.413       .  A
C1025      C1026   1.417       .  A
C1025      H1029   1.083       .  S
C1026      O1030   1.371       .  S
O1028      H1032   0.992       .  S
O1030      H1031   0.992       .  S
C1033      C1034   1.409       .  A
C1033      C1038   1.411       .  A
C1034      C1035   1.408       .  A
C1034      H1039   1.083       .  S
C1035      C1036   1.413       .  A
C1035      O1040   1.372       .  S
C1036      C1037   1.406       .  A
C1037      C1038   1.401       .  A
C1037      H1041   1.084       .  S
C1038      O1042   1.372       .  S
O1040      H1044   0.992       .  S
O1042      H1043   0.993       .  S
C1045      C1046   1.408       .  A
C1045      C1050   1.409       .  A
C1046      C1047   1.411       .  A
C1046      H1051   1.083       .  S
C1047      C1048   1.413       .  A
C1047      O1052   1.372       .  S
C1048      C1049   1.404       .  A
C1049      C1050   1.398       .  A
C1049      H1053   1.084       .  S
C1050      O1054   1.372       .  S
O1052      H1056   0.992       .  S
O1054      H1055   0.992       .  S
C1057      C1058   1.406       .  A
C1057      C1062   1.408       .  A
C1058      C1059   1.393       .  A
C1058      H1063   1.084       .  S
C1059      C1060   1.408       .  A
C1059      O1064   1.371       .  S
C1060      C1061   1.408       .  A
C1061      C1062   1.401       .  A
C1061      H1065   1.083       .  S
C1062      O1066   1.372       .  S
O1064      H1068   0.990       .  S
O1066      H1067   0.992       .  S
C1069      C1070   1.409       .  A
C1069      C1074   1.414       .  A
C1070      C1071   1.411       .  A
C1070      H1075   1.083       .  S
C1071      C1072   1.412       .  A
C1071      O1076   1.372       .  S
C1072      C1073   1.404       .  A
C1073      C1074   1.405       .  A
C1073      H1077   1.084       .  S
C1074      O1078   1.371       .  S
O1076      H1080   0.992       .  S
O1078      H1079   0.991       .  S
C1081      C1082   1.410       .  A
C1081      C1086   1.407       .  A
C1082      C1083   1.401       .  A
C1082      H1087   1.084       .  S
C1083      C1084   1.405       .  A
C1083      O1088   1.373       .  S
C1084      C1085   1.406       .  A
C1085      C1086   1.401       .  A
C1085      H1089   1.084       .  S
C1086      O1090   1.372       .  S
O1088      H1092   0.993       .  S
O1090      H1091   0.992       .  S
C1093      C1094   1.405       .  A
C1093      C1098   1.408       .  A
C1094      C1095   1.406       .  A
C1094      H1099   1.084       .  S
C1095      C1096   1.411       .  A
C1095      O1100   1.371       .  S
C1096      C1097   1.408       .  A
C1097      C1098   1.397       .  A
C1097      H1101   1.084       .  S
C1098      O1102   1.373       .  S
O1100      H1104   0.992       .  S
O1102      H1103   0.992       .  S
C1105      C1106   1.407       .  A
C1105      C1110   1.417       .  A
C1106      C1107   1.406       .  A
C1106      H1111   1.083       .  S
C1107      C1108   1.410       .  A
C1107      O1112   1.372   1_554  S
C1108      C1109   1.398       .  A
C1109      C1110   1.400       .  A
C1109      H1113   1.084       .  S
C1110      O1114   1.371       .  S
O1112      H1116   0.992       .  S
O1114      H1115   0.991       .  S
C1117      C1118   1.401       .  A
C1117      C1122   1.411       .  A
C1118      C1119   1.398       .  A
C1118      H1123   1.084       .  S
C1119      C1120   1.415       .  A
C1119      O1124   1.372       .  S
C1120      C1121   1.410       .  A
C1121      C1122   1.412       .  A
C1121      H1125   1.083       .  S
C1122      O1126   1.371       .  S
O1124      H1128   0.993       .  S
O1126      H1127   0.993       .  S
C1129      C1130   1.409       .  A
C1129      C1134   1.407       .  A
C1130      C1131   1.400       .  A
C1130      H1135   1.083       .  S
C1131      C1132   1.407       .  A
C1131      O1136   1.373       .  S
C1132      C1133   1.409       .  A
C1133      C1134   1.402       .  A
C1133      H1137   1.084       .  S
C1134      O1138   1.371       .  S
O1136      H1140   0.993       .  S
O1138      H1139   0.992       .  S
C1141      C1142   1.405       .  A
C1141      C1146   1.415       .  A
C1142      C1143   1.404       .  A
C1142      H1147   1.083       .  S
C1143      C1144   1.413   1_556  A
C1143      O1148   1.371       .  S
C1144      C1145   1.403       .  A
C1145      C1146   1.400   1_554  A
C1145      H1149   1.084       .  S
C1146      O1150   1.372       .  S
O1148      H1152   0.992       .  S
O1150      H1151   0.992       .  S
C1153      C1154   1.404       .  A
C1153      C1158   1.409       .  A
C1154      C1155   1.397       .  A
C1154      H1159   1.084       .  S
C1155      C1156   1.407       .  A
C1155      O1160   1.371       .  S
C1156      C1157   1.404       .  A
C1157      C1158   1.398       .  A
C1157      H1161   1.084       .  S
C1158      O1162   1.373   1_556  S
O1160      H1164   0.992       .  S
O1162      H1163   0.992       .  S
C1165      C1166   1.405       .  A
C1165      C1170   1.414       .  A
C1166      C1167   1.407       .  A
C1166      H1171   1.084       .  S
C1167      C1168   1.417       .  A
C1167      O1172   1.372       .  S
C1168      C1169   1.406       .  A
C1169      C1170   1.408       .  A
C1169      H1173   1.083       .  S
C1170      O1174   1.371       .  S
O1172      H1176   0.992       .  S
O1174      H1175   0.992       .  S
C1177      C1178   1.409       .  A
C1177      C1182   1.413       .  A
C1178      C1179   1.403       .  A
C1178      H1183   1.083       .  S
C1179      C1180   1.409       .  A
C1179      O1184   1.371       .  S
C1180      C1181   1.407       .  A
C1181      C1182   1.407       .  A
C1181      H1185   1.084       .  S
C1182      O1186   1.371       .  S
O1184      H1188   0.992       .  S
O1186      H1187   0.991       .  S
C1189      C1190   1.409       .  A
C1189      C1194   1.408       .  A
C1190      C1191   1.400       .  A
C1190      H1195   1.083       .  S
C1191      C1192   1.407       .  A
C1191      O1196   1.371       .  S
C1192      C1193   1.406       .  A
C1193      C1194   1.396       .  A
C1193      H1197   1.084       .  S
C1194      O1198   1.371       .  S
O1196      H1200   0.992       .  S
O1198      H1199   0.991       .  S
C1201      C1202   1.402       .  A
C1201      C1206   1.410       .  A
C1202      C1203   1.398       .  A
C1202      H1207   1.084       .  S
C1203      C1204   1.412       .  A
C1203      O1208   1.371       .  S
C1204      C1205   1.402       .  A
C1205      C1206   1.397       .  A
C1205      H1209   1.081       .  S
C1206      O1210   1.374       .  S
O1208      H1212   0.992       .  S
O1210      H1211   0.993       .  S
C1213      C1214   1.403   1_556  A
C1213      C1218   1.414       .  A
C1214      C1215   1.401       .  A
C1214      H1219   1.084       .  S
C1215      C1216   1.413       .  A
C1215      O1220   1.373       .  S
C1216      C1217   1.404   1_554  A
C1217      C1218   1.408       .  A
C1217      H1221   1.083       .  S
C1218      O1222   1.371       .  S
O1220      H1224   0.992       .  S
O1222      H1223   0.992       .  S
C1225      C1226   1.406       .  A
C1225      C1230   1.414       .  A
C1226      C1227   1.403       .  A
C1226      H1231   1.083       .  S
C1227      C1228   1.414       .  A
C1227      O1232   1.371       .  S
C1228      C1229   1.411       .  A
C1229      C1230   1.415       .  A
C1229      H1233   1.083       .  S
C1230      O1234   1.371       .  S
O1232      H1236   0.993       .  S
O1234      H1235   0.991       .  S
C1237      C1238   1.409       .  A
C1237      C1242   1.409       .  A
C1238      C1239   1.410       .  A
C1238      H1243   1.084       .  S
C1239      C1240   1.414       .  A
C1239      O1244   1.371       .  S
C1240      C1241   1.410       .  A
C1241      C1242   1.406       .  A
C1241      H1245   1.083       .  S
C1242      O1246   1.371       .  S
O1244      H1248   0.991       .  S
O1246      H1247   0.992       .  S
C1249      C1250   1.407       .  A
C1249      C1254   1.407       .  A
C1250      C1251   1.398       .  A
C1250      H1255   1.084       .  S
C1251      C1252   1.407       .  A
C1251      O1256   1.373       .  S
C1252      C1253   1.404       .  A
C1253      C1254   1.399       .  A
C1253      H1257   1.084       .  S
C1254      O1258   1.372       .  S
O1256      H1260   0.993   1_565  S
O1258      H1259   0.991       .  S
C1261      C1262   1.406       .  A
C1261      C1266   1.412   1_545  A
C1262      C1263   1.401       .  A
C1262      H1267   1.084       .  S
C1263      C1264   1.413       .  A
C1263      O1268   1.372       .  S
C1264      C1265   1.408   1_545  A
C1265      C1266   1.408       .  A
C1265      H1269   1.083       .  S
C1266      O1270   1.371       .  S
O1268      H1272   0.993       .  S
O1270      H1271   0.991       .  S
C1273      C1274   1.403       .  A
C1273      C1278   1.414       .  A
C1274      C1275   1.397       .  A
C1274      H1279   1.083       .  S
C1275      C1276   1.411       .  A
C1275      O1280   1.371       .  S
C1276      C1277   1.402       .  A
C1277      C1278   1.398       .  A
C1277      H1281   1.084       .  S
C1278      O1282   1.373       .  S
O1280      H1284   0.991       .  S
O1282      H1283   0.994       .  S
C1285      C1286   1.405       .  A
C1285      C1290   1.413       .  A
C1286      C1287   1.405       .  A
C1286      H1291   1.083       .  S
C1287      C1288   1.412       .  A
C1287      O1292   1.372       .  S
C1288      C1289   1.402       .  A
C1289      C1290   1.399       .  A
C1289      H1293   1.081       .  S
C1290      O1294   1.372       .  S
O1292      H1296   0.990       .  S
O1294      H1295   0.992       .  S
C1297      C1298   1.406       .  A
C1297      C1302   1.419       .  A
C1298      C1299   1.405       .  A
C1298      H1303   1.083       .  S
C1299      C1300   1.413       .  A
C1299      O1304   1.372       .  S
C1300      C1301   1.407       .  A
C1301      C1302   1.416       .  A
C1301      H1305   1.083       .  S
C1302      O1306   1.371       .  S
O1304      H1308   0.992       .  S
O1306      H1307   0.992       .  S
C1309      C1310   1.406       .  A
C1309      C1314   1.417       .  A
C1310      C1311   1.406       .  A
C1310      H1315   1.084       .  S
C1311      C1312   1.418       .  A
C1311      O1316   1.371       .  S
C1312      C1313   1.410       .  A
C1313      C1314   1.418       .  A
C1313      H1317   1.083       .  S
C1314      O1318   1.371       .  S
O1316      H1320   0.992       .  S
O1318      H1319   0.992       .  S
C1321      C1322   1.411       .  A
C1321      C1326   1.415       .  A
C1322      C1323   1.413       .  A
C1322      H1327   1.083       .  S
C1323      C1324   1.412       .  A
C1323      O1328   1.371       .  S
C1324      C1325   1.405       .  A
C1325      C1326   1.405       .  A
C1325      H1329   1.084       .  S
C1326      O1330   1.372       .  S
O1328      H1332   0.991       .  S
O1330      H1331   0.992       .  S
C1333      C1334   1.412       .  A
C1333      C1338   1.413       .  A
C1334      C1335   1.410   1_554  A
C1334      H1339   1.083       .  S
C1335      C1336   1.412       .  A
C1335      O1340   1.371       .  S
C1336      C1337   1.411       .  A
C1337      C1338   1.412   1_556  A
C1337      H1341   1.083       .  S
C1338      O1342   1.371       .  S
O1340      H1344   0.993       .  S
O1342      H1343   0.992       .  S
C1345      C1346   1.403       .  A
C1345      C1350   1.415       .  A
C1346      C1347   1.401       .  A
C1346      H1351   1.084       .  S
C1347      C1348   1.415       .  A
C1347      O1352   1.371       .  S
C1348      C1349   1.404       .  A
C1349      C1350   1.405       .  A
C1349      H1353   1.083       .  S
C1350      O1354   1.372       .  S
O1352      H1356   0.991       .  S
O1354      H1355   0.992       .  S
C1357      C1358   1.403       .  A
C1357      C1362   1.404       .  A
C1358      C1359   1.405       .  A
C1358      H1363   1.084       .  S
C1359      C1360   1.413       .  A
C1359      O1364   1.372       .  S
C1360      C1361   1.408       .  A
C1361      C1362   1.402       .  A
C1361      H1365   1.083       .  S
C1362      O1366   1.371       .  S
O1364      H1368   0.992       .  S
O1366      H1367   0.991       .  S
C1369      C1370   1.402       .  A
C1369      C1374   1.412       .  A
C1370      C1371   1.401       .  A
C1370      H1375   1.084       .  S
C1371      C1372   1.414       .  A
C1371      O1376   1.370       .  S
C1372      C1373   1.403       .  A
C1373      C1374   1.400       .  A
C1373      H1377   1.084       .  S
C1374      O1378   1.371       .  S
O1376      H1380   0.991       .  S
O1378      H1379   0.992       .  S
C1381      C1382   1.403       .  A
C1381      C1386   1.413       .  A
C1382      C1383   1.400       .  A
C1382      H1387   1.084       .  S
C1383      C1384   1.412       .  A
C1383      O1388   1.372       .  S
C1384      C1385   1.405       .  A
C1385      C1386   1.407       .  A
C1385      H1389   1.083       .  S
C1386      O1390   1.371       .  S
O1388      H1392   0.992       .  S
O1390      H1391   0.992       .  S
C1393      C1394   1.403       .  A
C1393      C1398   1.416       .  A
C1394      C1395   1.405       .  A
C1394      H1399   1.083       .  S
C1395      C1396   1.413       .  A
C1395      O1400   1.372       .  S
C1396      C1397   1.404       .  A
C1397      C1398   1.409       .  A
C1397      H1401   1.083       .  S
C1398      O1402   1.372       .  S
O1400      H1404   0.991       .  S
O1402      H1403   0.992       .  S
C1405      C1406   1.405       .  A
C1405      C1410   1.410   1_655  A
C1406      C1407   1.405   1_655  A
C1406      H1411   1.084       .  S
C1407      C1408   1.414       .  A
C1407      O1412   1.371       .  S
C1408      C1409   1.407       .  A
C1409      C1410   1.403       .  A
C1409      H1413   1.083       .  S
C1410      O1414   1.371   1_455  S
O1412      H1416   0.993       .  S
O1414      H1415   0.991       .  S
C1417      C1418   1.404       .  A
C1417      C1422   1.414       .  A
C1418      C1419   1.408       .  A
C1418      H1423   1.084       .  S
C1419      C1420   1.416       .  A
C1419      O1424   1.371       .  S
C1420      C1421   1.402       .  A
C1421      C1422   1.404       .  A
C1421      H1425   1.083       .  S
C1422      O1426   1.371       .  S
O1424      H1428   0.992       .  S
O1426      H1427   0.992       .  S
C1429      C1430   1.404       .  A
C1429      C1434   1.407       .  A
C1430      C1431   1.399       .  A
C1430      H1435   1.084       .  S
C1431      C1432   1.409       .  A
C1431      O1436   1.371       .  S
C1432      C1433   1.408       .  A
C1433      C1434   1.402       .  A
C1433      H1437   1.083       .  S
C1434      O1438   1.372       .  S
O1436      H1440   0.992       .  S
O1438      H1439   0.992       .  S
C1441      C1442   1.406       .  A
C1441      C1446   1.415       .  A
C1442      C1443   1.402       .  A
C1442      H1447   1.083       .  S
C1443      C1444   1.415       .  A
C1443      O1448   1.371       .  S
C1444      C1445   1.410       .  A
C1445      C1446   1.414       .  A
C1445      H1449   1.083       .  S
C1446      O1450   1.372       .  S
O1448      H1452   0.992       .  S
O1450      H1451   0.992       .  S
C1453      C1454   1.410       .  A
C1453      C1458   1.413       .  A
C1454      C1455   1.410       .  A
C1454      H1459   1.083       .  S
C1455      C1456   1.414       .  A
C1455      O1460   1.371       .  S
C1456      C1457   1.405       .  A
C1457      C1458   1.403       .  A
C1457      H1461   1.083       .  S
C1458      O1462   1.371       .  S
O1460      H1464   0.992       .  S
O1462      H1463   0.992       .  S
C1465      C1466   1.401       .  A
C1465      C1470   1.411       .  A
C1466      C1467   1.398       .  A
C1466      H1471   1.084       .  S
C1467      C1468   1.412       .  A
C1467      O1472   1.372       .  S
C1468      C1469   1.401       .  A
C1469      C1470   1.399       .  A
C1469      H1473   1.084       .  S
C1470      O1474   1.371       .  S
O1472      H1476   0.993       .  S
O1474      H1475   0.992       .  S
C1477      C1478   1.401       .  A
C1477      C1482   1.415   1_554  A
C1478      C1479   1.405   1_554  A
C1478      H1483   1.083       .  S
C1479      C1480   1.418       .  A
C1479      O1484   1.372   1_556  S
C1480      C1481   1.400       .  A
C1481      C1482   1.399       .  A
C1481      H1485   1.083       .  S
C1482      O1486   1.372       .  S
O1484      H1488   0.992   1_554  S
O1486      H1487   0.992   1_556  S
C1489      C1490   1.404       .  A
C1489      C1494   1.414       .  A
C1490      C1491   1.398       .  A
C1490      H1495   1.083       .  S
C1491      C1492   1.414       .  A
C1491      O1496   1.372       .  S
C1492      C1493   1.408       .  A
C1493      C1494   1.410       .  A
C1493      H1497   1.083       .  S
C1494      O1498   1.371       .  S
O1496      H1500   0.992       .  S
O1498      H1499   0.991       .  S
C1501      C1502   1.406       .  A
C1501      C1506   1.410       .  A
C1502      C1503   1.405       .  A
C1502      H1507   1.084       .  S
C1503      C1504   1.412       .  A
C1503      O1508   1.371       .  S
C1504      C1505   1.407       .  A
C1505      C1506   1.402       .  A
C1505      H1509   1.083       .  S
C1506      O1510   1.372       .  S
O1508      H1512   0.992       .  S
O1510      H1511   0.992       .  S
C1513      C1514   1.403       .  A
C1513      C1518   1.412       .  A
C1514      C1515   1.408       .  A
C1514      H1519   1.083       .  S
C1515      C1516   1.414   1_556  A
C1515      O1520   1.371       .  S
C1516      C1517   1.404       .  A
C1517      C1518   1.401   1_554  A
C1517      H1521   1.084       .  S
C1518      O1522   1.372       .  S
O1520      H1524   0.992       .  S
O1522      H1523   0.993       .  S
C1525      C1526   1.407       .  A
C1525      C1530   1.412       .  A
C1526      C1527   1.404       .  A
C1526      H1531   1.083       .  S
C1527      C1528   1.410       .  A
C1527      O1532   1.371       .  S
C1528      C1529   1.406       .  A
C1529      C1530   1.400       .  A
C1529      H1533   1.084       .  S
C1530      O1534   1.371       .  S
O1532      H1536   0.992       .  S
O1534      H1535   0.992       .  S
C1537      C1538   1.407       .  A
C1537      C1542   1.412       .  A
C1538      C1539   1.404       .  A
C1538      H1543   1.084       .  S
C1539      C1540   1.413       .  A
C1539      O1544   1.371       .  S
C1540      C1541   1.410   1_565  A
C1541      C1542   1.410   1_545  A
C1541      H1545   1.083       .  S
C1542      O1546   1.371   1_565  S
O1544      H1548   0.992       .  S
O1546      H1547   0.992       .  S
C1549      C1550   1.404       .  A
C1549      C1554   1.411       .  A
C1550      C1551   1.394       .  A
C1550      H1555   1.084       .  S
C1551      C1552   1.410       .  A
C1551      O1556   1.372       .  S
C1552      C1553   1.405       .  A
C1553      C1554   1.400       .  A
C1553      H1557   1.084       .  S
C1554      O1558   1.371   1_655  S
O1556      H1560   0.990       .  S
O1558      H1559   0.995       .  S
C1561      C1562   1.404       .  A
C1561      C1566   1.411       .  A
C1562      C1563   1.399       .  A
C1562      H1567   1.084       .  S
C1563      C1564   1.412       .  A
C1563      O1568   1.373   1_565  S
C1564      C1565   1.404       .  A
C1565      C1566   1.403       .  A
C1565      H1569   1.083       .  S
C1566      O1570   1.372   1_655  S
O1568      H1572   0.993       .  S
O1570      H1571   0.993   1_455  S
C1573      C1574   1.409       .  A
C1573      C1578   1.413       .  A
C1574      C1575   1.406       .  A
C1574      H1579   1.083       .  S
C1575      C1576   1.411       .  A
C1575      O1580   1.372       .  S
C1576      C1577   1.410       .  A
C1577      C1578   1.410       .  A
C1577      H1581   1.083       .  S
C1578      O1582   1.371       .  S
O1580      H1584   0.991       .  S
O1582      H1583   0.992   1_554  S
C1585      C1586   1.410   1_565  A
C1585      C1590   1.410       .  A
C1586      C1587   1.408       .  A
C1586      H1591   1.083       .  S
C1587      C1588   1.409       .  A
C1587      O1592   1.371       .  S
C1588      C1589   1.407   1_545  A
C1589      C1590   1.401       .  A
C1589      H1593   1.084       .  S
C1590      O1594   1.371       .  S
O1592      H1596   0.992       .  S
O1594      H1595   0.991   1_556  S
C1597      C1598   1.403       .  A
C1597      C1602   1.417       .  A
C1598      C1599   1.405       .  A
C1598      H1603   1.082       .  S
C1599      C1600   1.418       .  A
C1599      O1604   1.372       .  S
C1600      C1601   1.406       .  A
C1601      C1602   1.410       .  A
C1601      H1605   1.083       .  S
C1602      O1606   1.371       .  S
O1604      H1608   0.993       .  S
O1606      H1607   0.992       .  S
C1609      C1610   1.404       .  A
C1609      C1614   1.416       .  A
C1610      C1611   1.403       .  A
C1610      H1615   1.084       .  S
C1611      C1612   1.416       .  A
C1611      O1616   1.371       .  S
C1612      C1613   1.406       .  A
C1613      C1614   1.407       .  A
C1613      H1617   1.083       .  S
C1614      O1618   1.372       .  S
O1616      H1620   0.992       .  S
O1618      H1619   0.992       .  S
C1621      C1622   1.405       .  A
C1621      C1626   1.415       .  A
C1622      C1623   1.407       .  A
C1622      H1627   1.083       .  S
C1623      C1624   1.415       .  A
C1623      O1628   1.371       .  S
C1624      C1625   1.407       .  A
C1625      C1626   1.405       .  A
C1625      H1629   1.083       .  S
C1626      O1630   1.372       .  S
O1628      H1632   0.992       .  S
O1630      H1631   0.993       .  S
C1633      C1634   1.406       .  A
C1633      C1638   1.415       .  A
C1634      C1635   1.405       .  A
C1634      H1639   1.081       .  S
C1635      C1636   1.414       .  A
C1635      O1640   1.372   1_554  S
C1636      C1637   1.408       .  A
C1637      C1638   1.409       .  A
C1637      H1641   1.083       .  S
C1638      O1642   1.371       .  S
O1640      H1644   0.992   1_556  S
O1642      H1643   0.992       .  S
C1645      C1646   1.410   1_556  A
C1645      C1650   1.409       .  A
C1646      C1647   1.409       .  A
C1646      H1651   1.083       .  S
C1647      C1648   1.408   1_554  A
C1647      O1652   1.371       .  S
C1648      C1649   1.405       .  A
C1649      C1650   1.396       .  A
C1649      H1653   1.084       .  S
C1650      O1654   1.372       .  S
O1652      H1656   0.991       .  S
O1654      H1655   0.994       .  S
C1657      C1658   1.406       .  A
C1657      C1662   1.410       .  A
C1658      C1659   1.394       .  A
C1658      H1663   1.083       .  S
C1659      C1660   1.406       .  A
C1659      O1664   1.372       .  S
C1660      C1661   1.406       .  A
C1661      C1662   1.400       .  A
C1661      H1665   1.084       .  S
C1662      O1666   1.371   1_556  S
O1664      H1668   0.992       .  S
O1666      H1667   0.993       .  S
C1669      C1670   1.408       .  A
C1669      C1674   1.413       .  A
C1670      C1671   1.404       .  A
C1670      H1675   1.083       .  S
C1671      C1672   1.414       .  A
C1671      O1676   1.372       .  S
C1672      C1673   1.410       .  A
C1673      C1674   1.412       .  A
C1673      H1677   1.083       .  S
C1674      O1678   1.371       .  S
O1676      H1680   0.992       .  S
O1678      H1679   0.991       .  S
C1681      C1682   1.407       .  A
C1681      C1686   1.415       .  A
C1682      C1683   1.406       .  A
C1682      H1687   1.083       .  S
C1683      C1684   1.414       .  A
C1683      O1688   1.371       .  S
C1684      C1685   1.410       .  A
C1685      C1686   1.412       .  A
C1685      H1689   1.083       .  S
C1686      O1690   1.371       .  S
O1688      H1692   0.992       .  S
O1690      H1691   0.992       .  S
C1693      C1694   1.405       .  A
C1693      C1698   1.417       .  A
C1694      C1695   1.403       .  A
C1694      H1699   1.083       .  S
C1695      C1696   1.410       .  A
C1695      O1700   1.372       .  S
C1696      C1697   1.400       .  A
C1697      C1698   1.402       .  A
C1697      H1701   1.084       .  S
C1698      O1702   1.371       .  S
O1700      H1704   0.993       .  S
O1702      H1703   0.992       .  S
C1705      C1706   1.407       .  A
C1705      C1710   1.414       .  A
C1706      C1707   1.405       .  A
C1706      H1711   1.084       .  S
C1707      C1708   1.412       .  A
C1707      O1712   1.372       .  S
C1708      C1709   1.403       .  A
C1709      C1710   1.405       .  A
C1709      H1713   1.083       .  S
C1710      O1714   1.372       .  S
O1712      H1716   0.992       .  S
O1714      H1715   0.992       .  S
C1717      C1718   1.400       .  A
C1717      C1722   1.419       .  A
C1718      C1719   1.397       .  A
C1718      H1723   1.083       .  S
C1719      C1720   1.413       .  A
C1719      O1724   1.372       .  S
C1720      C1721   1.400       .  A
C1721      C1722   1.405       .  A
C1721      H1725   1.084       .  S
C1722      O1726   1.372       .  S
O1724      H1728   0.992       .  S
O1726      H1727   0.992       .  S
C1729      C1730   1.408       .  A
C1729      C1734   1.410       .  A
C1730      C1731   1.405       .  A
C1730      H1735   1.084       .  S
C1731      C1732   1.410       .  A
C1731      O1736   1.372       .  S
C1732      C1733   1.405       .  A
C1733      C1734   1.405       .  A
C1733      H1737   1.084       .  S
C1734      O1738   1.372       .  S
O1736      H1740   0.992       .  S
O1738      H1739   0.992       .  S
C1741      C1742   1.407       .  A
C1741      C1746   1.416       .  A
C1742      C1743   1.407       .  A
C1742      H1747   1.083       .  S
C1743      C1744   1.412       .  A
C1743      O1748   1.371       .  S
C1744      C1745   1.402       .  A
C1745      C1746   1.403       .  A
C1745      H1749   1.084       .  S
C1746      O1750   1.372       .  S
O1748      H1752   0.992       .  S
O1750      H1751   0.992       .  S
C1753      C1754   1.408       .  A
C1753      C1758   1.408       .  A
C1754      C1755   1.401       .  A
C1754      H1759   1.084       .  S
C1755      C1756   1.407       .  A
C1755      O1760   1.371       .  S
C1756      C1757   1.406       .  A
C1757      C1758   1.401       .  A
C1757      H1761   1.084       .  S
C1758      O1762   1.371       .  S
O1760      H1764   0.991       .  S
O1762      H1763   0.992       .  S
C1765      C1766   1.408       .  A
C1765      C1770   1.409       .  A
C1766      C1767   1.398       .  A
C1766      H1771   1.083       .  S
C1767      C1768   1.404       .  A
C1767      O1772   1.372       .  S
C1768      C1769   1.406       .  A
C1769      C1770   1.400       .  A
C1769      H1773   1.084       .  S
C1770      O1774   1.371       .  S
O1772      H1776   0.992       .  S
O1774      H1775   0.992       .  S
