geometry optimzed in LAMMPS
_audit_creation_date              2020-12-01 
_audit_creation_method            'lammps2cif' 
_symmetry_space_group_name_H-M    'P1' 
_symmetry_Int_Tables_number       1 
_symmetry_cell_setting            triclinic 
loop_ 
_symmetry_equiv_pos_as_xyz 
  x,y,z 
_cell_length_a                    52.28610525 
_cell_length_b                    53.062225391005434 
_cell_length_c                    52.6373018813906 
_cell_angle_alpha                 89.60209547919489 
_cell_angle_beta                  90.37456781694611 
_cell_angle_gamma                 89.98182048521436 
loop_ 
_atom_site_label 
_atom_site_type_symbol 
_atom_site_fract_x 
_atom_site_fract_y 
_atom_site_fract_z 
_atom_site_charge 
C1          C  0.79174081  0.83581197  0.02987834     0.02800
C2          C  0.80303007  0.85977770  0.02766064    -0.13300
C3          C  0.81107781  0.86894491  0.00409753     0.00300
C4          C  0.80683963  0.85452090  0.98238545    -0.11900
C5          C  0.79588679  0.83039724  0.98392208     0.02800
C6          C  0.78810738  0.82116987  0.00783546    -0.11300
H7          H  0.80622156  0.87112840  0.04441213     0.08400
H8          H  0.81242206  0.86222947  0.96413272     0.05900
H9          H  0.78002008  0.80244309  0.00940939     0.05800
C10         C  0.75681211  0.21002544  0.03466908     0.02800
C11         C  0.74468219  0.21474417  0.01098215    -0.13300
C12         C  0.75405567  0.20358987  0.98845004     0.00300
C13         C  0.77568333  0.18767106  0.99027208    -0.11900
C14         C  0.78726817  0.18225297  0.01372695     0.02800
C15         C  0.77774238  0.19334382  0.03571372    -0.11300
H16         H  0.72831790  0.22723456  0.01012109     0.08400
H17         H  0.78378742  0.17941528  0.97337303     0.05900
H18         H  0.78682688  0.18902314  0.05380008     0.05800
C19         C  0.18006632  0.83741047  0.01461609     0.02800
C20         C  0.16054213  0.85550632  0.01206377    -0.13300
C21         C  0.15307744  0.86477883  0.98819070     0.00300
C22         C  0.16562010  0.85610998  0.96653283    -0.11900
C23         C  0.18583849  0.83864734  0.96844976     0.02800
C24         C  0.19297214  0.82928927  0.99267732    -0.11300
H25         H  0.15080896  0.86227543  0.02879842     0.08400
H26         H  0.15948517  0.86299695  0.94805434     0.05900
H27         H  0.20816990  0.81549989  0.99440181     0.05800
C28         C  0.78103743  0.05482615  0.80444753     0.02800
C29         C  0.80309288  0.05348086  0.81965004    -0.13300
C30         C  0.81650146  0.03090403  0.82291785     0.00300
C31         C  0.80841077  0.00943170  0.80984288    -0.11900
C32         C  0.78643999  0.01011642  0.79426362     0.02800
C33         C  0.77268759  0.03298138  0.79161372    -0.11300
H34         H  0.80988583  0.07024071  0.82923815     0.08400
H35         H  0.81850691  0.99179656  0.81279533     0.05900
H36         H  0.75552464  0.03365943  0.77999644     0.05800
C37         C  0.95355804  0.21855917  0.78595013     0.02800
C38         C  0.97546232  0.22365213  0.77110383    -0.13300
C39         C  0.99922751  0.21254386  0.77736592     0.00300
C40         C  0.00090478  0.19674048  0.79884725    -0.11900
C41         C  0.97957734  0.19200875  0.81405279     0.02800
C42         C  0.95610568  0.20315136  0.80773288    -0.11300
H43         H  0.97384058  0.23534064  0.75422195     0.08400
H44         H  0.01904758  0.18815323  0.80399217     0.05900
H45         H  0.93963277  0.19922205  0.81949852     0.05800
C46         C  0.94562806  0.85546808  0.78986627     0.02800
C47         C  0.94888788  0.87531341  0.80721940    -0.13300
C48         C  0.97283991  0.88679825  0.81070249     0.00300
C49         C  0.99405661  0.87780539  0.79725148    -0.11900
C50         C  0.99151139  0.85736461  0.78046286     0.02800
C51         C  0.96709826  0.84684401  0.77647634    -0.11300
H52         H  0.93285766  0.88179138  0.81835002     0.08400
H53         H  0.01270857  0.88595649  0.80087704     0.05900
H54         H  0.96483744  0.83192097  0.76272854     0.05800
C55         C  0.18819985  0.04774520  0.80992085     0.02800
C56         C  0.19670322  0.02354628  0.80284959    -0.13300
C57         C  0.18936541  0.00202011  0.81712885     0.00300
C58         C  0.17361498  0.00534960  0.83839222    -0.11900
C59         C  0.16600012  0.02926362  0.84579399     0.02800
C60         C  0.17367685  0.05028059  0.83202733    -0.11300
H61         H  0.20836509  0.02154637  0.78608800     0.08400
H62         H  0.16591703  0.98932007  0.84862294     0.05900
H63         H  0.16760670  0.06871135  0.83839201     0.05800
C64         C  0.96961269  0.82618290  0.19426768     0.02800
C65         C  0.99321394  0.81339213  0.19495950    -0.13300
C66         C  0.01454792  0.82311090  0.18177747     0.00300
C67         C  0.01139758  0.84559624  0.16750590    -0.11900
C68         C  0.98774714  0.85820076  0.16617746     0.02800
C69         C  0.96710620  0.84847921  0.17992738    -0.11300
H70         H  0.99488472  0.79611157  0.20590430     0.08400
H71         H  0.02757917  0.85386254  0.15781291     0.05900
H72         H  0.94875122  0.85796459  0.17905191     0.05800
C73         C  0.78010420  0.05127418  0.19494827     0.02800
C74         C  0.79598117  0.05181567  0.17348110    -0.13300
C75         C  0.80153337  0.02978207  0.16023606     0.00300
C76         C  0.79084576  0.00698332  0.16806022    -0.11900
C77         C  0.77458651  0.00580780  0.18913553     0.02800
C78         C  0.76943600  0.02802869  0.20273687    -0.11300
H79         H  0.80394793  0.06945681  0.16673258     0.08400
H80         H  0.79594013  0.98991008  0.15809032     0.05900
H81         H  0.75718627  0.02719929  0.21922455     0.05800
C82         C  0.97047388  0.21503905  0.21686350     0.02800
C83         C  0.99392382  0.22565801  0.22495641    -0.13300
C84         C  0.01572497  0.22437775  0.20931650     0.00300
C85         C  0.01396120  0.21199519  0.18582121    -0.11900
C86         C  0.99103739  0.20107003  0.17776427     0.02800
C87         C  0.96938935  0.20305626  0.19309433    -0.11300
H88         H  0.99522363  0.23490403  0.24319274     0.08400
H89         H  0.03083238  0.20995079  0.17415210     0.05900
H90         H  0.95151361  0.19525591  0.18622580     0.05800
Zr91       Zr  0.27702236  0.29812195  0.28339114     2.17500
O92         O  0.30994694  0.29413958  0.31625294    -0.51700
O93         O  0.27594637  0.34384612  0.28409922    -0.74900
O94         O  0.31900409  0.30858460  0.26797405    -0.81700
O95         O  0.22450110  0.28387660  0.33226410    -0.83400
O96         O  0.32447989  0.29272833  0.22832146    -0.79000
O97         O  0.26476144  0.29952642  0.32749492    -0.90700
O98         O  0.24539218  0.35760703  0.25645740    -0.76600
O99         O  0.27104170  0.31085677  0.24042697    -0.86100
O100        O  0.23298053  0.30860001  0.27977362    -0.85800
O101        O  0.29028268  0.26251661  0.25887108    -0.72600
O102        O  0.25426618  0.26089943  0.29554188    -0.84700
Zr103      Zr  0.21630187  0.24731895  0.22301461     2.26400
Zr104      Zr  0.28301701  0.27524649  0.21555484     2.06300
Zr105      Zr  0.20996362  0.27106908  0.29044453     2.10000
Zr106      Zr  0.22685685  0.32060234  0.23655449     1.78800
O107        O  0.19637219  0.23840571  0.32013164    -0.93500
O108        O  0.24211265  0.34582528  0.20092135    -0.41300
O109        O  0.20348128  0.28324512  0.24713171    -0.77900
O110        O  0.23840727  0.28520195  0.21061179    -0.96600
O111        O  0.26048963  0.23774730  0.22729214    -0.89900
O112        O  0.22197216  0.23506371  0.26619469    -0.92800
C113        C  0.26324519  0.36140454  0.27282073     1.01000
C114        C  0.24531649  0.29341948  0.34094681     1.13900
C115        C  0.33238262  0.30444226  0.24818469     1.04700
O116        O  0.29142868  0.30881428  0.18494089    -0.94900
O117        O  0.27086043  0.25663312  0.17485028    -0.90700
O118        O  0.23251027  0.23748504  0.18138535    -0.83800
C119        C  0.25184943  0.24302448  0.16763856     1.11300
O120        O  0.30311603  0.22170287  0.29904585    -0.96900
Zr121      Zr  0.26640118  0.22567889  0.27049053     1.88900
O122        O  0.21764985  0.20126844  0.22355833    -0.73500
O123        O  0.31657190  0.24785710  0.19954083    -0.52800
O124        O  0.29938697  0.19865061  0.25280524    -0.97500
O125        O  0.25328049  0.20242868  0.30833282    -0.54700
O126        O  0.24674172  0.18831725  0.25322555    -0.74100
C127        C  0.23010703  0.18411930  0.23582243     0.98300
O128        O  0.18341010  0.25049400  0.19003937    -0.62900
O129        O  0.17997622  0.30247707  0.30589971    -0.57700
O130        O  0.17165892  0.24530775  0.23545373    -0.94400
O131        O  0.16759739  0.25764577  0.27655600    -0.92800
O132        O  0.19096900  0.34430897  0.25358862    -0.93100
O133        O  0.19281055  0.32910308  0.20590456    -0.91900
C134        C  0.15833320  0.24988300  0.25534507     1.17100
H135        H  0.22862971  0.32203861  0.29123676     0.33100
H136        H  0.23458489  0.28919978  0.19305548     0.43900
H137        H  0.21133206  0.22082120  0.27057985     0.37400
H138        H  0.30822522  0.25907085  0.26173862     0.33900
H139        H  0.23515570  0.36289963  0.20392252     0.25700
H140        H  0.32697612  0.25882155  0.18835420     0.31700
H141        H  0.29885440  0.20206367  0.23429420     0.37600
H142        H  0.19407687  0.34517543  0.27212836     0.32000
H143        H  0.16883987  0.30646860  0.29112723     0.30900
H144        H  0.18169332  0.24588445  0.32917486     0.32600
H145        H  0.23603402  0.19585091  0.30424468     0.31500
H146        H  0.18744486  0.31225101  0.19992679     0.35500
H147        H  0.19015001  0.26259401  0.17733104     0.28300
H148        H  0.31915590  0.31044387  0.31644386     0.32500
H149        H  0.30372951  0.20370762  0.30411176     0.35400
H150        H  0.16878523  0.29314697  0.31779376     0.28000
H151        H  0.18329121  0.23398804  0.18137524     0.40800
H152        H  0.27684408  0.30827146  0.17286857     0.30900
H153        H  0.26072758  0.34759707  0.20395343     0.38500
H154        H  0.25025699  0.21551629  0.32128828     0.30400
H155        H  0.32774063  0.24425996  0.21439063     0.30400
H156        H  0.32241468  0.28179455  0.30964202     0.30700
C157        C  0.20848811  0.05003736  0.17390240     0.02800
C158        C  0.19034552  0.05020049  0.15411476    -0.13300
C159        C  0.17698044  0.02830609  0.14778121     0.00300
C160        C  0.18236441  0.00584415  0.16072713    -0.11900
C161        C  0.20105018  0.00497960  0.18002661     0.02800
C162        C  0.21409551  0.02722543  0.18664475    -0.11300
H163        H  0.18539288  0.06777254  0.14466054     0.08400
H164        H  0.17203101  0.98890366  0.15557086     0.05900
H165        H  0.22793699  0.02695230  0.20205192     0.05800
Zr166      Zr  0.27270938  0.74938431  0.26976344     2.17500
O167        O  0.30690131  0.71809537  0.27233760    -0.51700
O168        O  0.26452538  0.74226529  0.31438104    -0.74900
O169        O  0.31310272  0.76644912  0.28468044    -0.81700
O170        O  0.22441269  0.69868503  0.24927611    -0.83400
O171        O  0.31802191  0.80663495  0.27031636    -0.79000
O172        O  0.26488477  0.70517114  0.26390034    -0.90700
O173        O  0.23432455  0.76989239  0.32763602    -0.76600
O174        O  0.26441358  0.79117238  0.28323126    -0.86100
O175        O  0.22790661  0.75056359  0.27765326    -0.85800
O176        O  0.28737479  0.77553349  0.23547726    -0.72600
O177        O  0.25258967  0.73856133  0.23037547    -0.84700
Zr178      Zr  0.21245468  0.80907920  0.21628004     2.26400
Zr179      Zr  0.27769360  0.81757005  0.24865933     2.06300
Zr180      Zr  0.20752859  0.74066543  0.23817624     2.10000
Zr181      Zr  0.21952847  0.79273126  0.29022076     1.78800
O182        O  0.19586036  0.71523845  0.20157673    -0.93500
O183        O  0.23251029  0.82549612  0.31985518    -0.41300
O184        O  0.19854366  0.78306097  0.25095204    -0.77900
O185        O  0.23239920  0.81992029  0.25615950    -0.96600
O186        O  0.25734526  0.80770316  0.20893159    -0.89900
O187        O  0.22077218  0.76700339  0.20337187    -0.92800
C188        C  0.25023913  0.75185174  0.33146986     1.01000
C189        C  0.24637999  0.69081261  0.25723267     1.13900
C190        C  0.32588810  0.78693877  0.28245921     1.04700
O191        O  0.28517840  0.84900927  0.28135799    -0.94900
O192        O  0.26408361  0.85874438  0.23268737    -0.90700
O193        O  0.22417089  0.85335670  0.21612066    -0.83800
C194        C  0.24338114  0.86713874  0.22236811     1.11300
O195        O  0.30032837  0.73491898  0.19269580    -0.96900
Zr196      Zr  0.26584021  0.76558688  0.19642363     1.88900
O197        O  0.21539588  0.80879585  0.17000931    -0.73500
O198        O  0.31201163  0.83227078  0.22122883    -0.52800
O199        O  0.30366361  0.78274046  0.17581059    -0.97500
O200        O  0.25207704  0.73256108  0.16736243    -0.54700
O201        O  0.25126161  0.78771251  0.15872942    -0.74100
C202        C  0.23139524  0.80089486  0.15342965     0.98300
O203        O  0.18064691  0.84253247  0.21133005    -0.62900
O204        O  0.17613267  0.71961879  0.26505360    -0.57700
O205        O  0.16856404  0.79428109  0.21093749    -0.94400
O206        O  0.16419267  0.75490647  0.22756885    -0.92800
O207        O  0.17911399  0.77558199  0.30529046    -0.93100
O208        O  0.18710827  0.82446220  0.29877889    -0.91900
C209        C  0.15507460  0.77501232  0.21713353     1.17100
H210        H  0.22271605  0.73841442  0.29033923     0.33100
H211        H  0.22776620  0.83680998  0.26107545     0.43900
H212        H  0.21121204  0.76285768  0.18818767     0.37400
H213        H  0.30558953  0.77346653  0.23322661     0.33900
H214        H  0.22510338  0.82033339  0.33635805     0.25700
H215        H  0.32170166  0.84446116  0.23169833     0.31700
H216        H  0.30202937  0.80122743  0.17759372     0.37600
H217        H  0.18387848  0.76315261  0.31860567     0.32000
H218        H  0.17207424  0.70370818  0.25618011     0.30900
H219        H  0.18226472  0.70385611  0.20785878     0.32600
H220        H  0.23811388  0.74005422  0.15700204     0.31500
H221        H  0.18052652  0.82942798  0.28178579     0.35500
H222        H  0.17160355  0.83924426  0.19509224     0.28300
H223        H  0.31319947  0.71839362  0.29012149     0.32500
H224        H  0.30138986  0.73094573  0.17438264     0.35400
H225        H  0.18556709  0.71424871  0.28052837     0.28000
H226        H  0.16777341  0.83967006  0.22476787     0.40800
H227        H  0.30132356  0.85737937  0.27636162     0.30900
H228        H  0.25116869  0.82312780  0.32213735     0.38500
H229        H  0.24346342  0.71997830  0.17832040     0.30400
H230        H  0.32363731  0.81764628  0.21960311     0.30400
H231        H  0.32111825  0.72486880  0.26199874     0.30700
Zr232      Zr  0.78025763  0.25627837  0.23646725     2.17500
O233        O  0.81213077  0.26197639  0.20328759    -0.51700
O234        O  0.78137087  0.21046647  0.23526027    -0.74900
O235        O  0.82325358  0.24891685  0.25230968    -0.81700
O236        O  0.72663006  0.26615025  0.18645334    -0.83400
O237        O  0.82773665  0.26573787  0.29178185    -0.79000
O238        O  0.76786626  0.25354390  0.19209642    -0.90700
O239        O  0.75167497  0.19513380  0.26257275    -0.76600
O240        O  0.77558754  0.24397264  0.27969995    -0.86100
O241        O  0.73703354  0.24295402  0.23992036    -0.85800
O242        O  0.79119296  0.29290362  0.26084756    -0.72600
O243        O  0.75502673  0.29222702  0.22452555    -0.84700
Zr244      Zr  0.71693426  0.30325663  0.29651211     2.26400
Zr245      Zr  0.78532468  0.28058596  0.30449990     2.06300
Zr246      Zr  0.71145399  0.27881423  0.22876082     2.10000
Zr247      Zr  0.73219816  0.23113066  0.28329889     1.78800
O248        O  0.69435014  0.30590908  0.19520741    -0.93500
O249        O  0.75068282  0.20600120  0.31773381    -0.41300
O250        O  0.70579298  0.26666725  0.27231787    -0.77900
O251        O  0.74177751  0.26716877  0.30890895    -0.96600
O252        O  0.76006123  0.31648582  0.29300304    -0.89900
O253        O  0.72170237  0.31542074  0.25328158    -0.92800
C254        C  0.76928434  0.19223961  0.24597279     1.01000
C255        C  0.74818488  0.25797699  0.17800359     1.13900
C256        C  0.83653188  0.25450178  0.27206074     1.04700
O257        O  0.79726804  0.24988121  0.33706680    -0.94900
O258        O  0.77095833  0.29788374  0.34542107    -0.90700
O259        O  0.72998075  0.31112527  0.33958840    -0.83800
C260        C  0.74990256  0.30761019  0.35344024     1.11300
O261        O  0.79445115  0.33790857  0.21532284    -0.96900
Zr262      Zr  0.76499354  0.32839595  0.24976088     1.88900
O263        O  0.71771963  0.34896753  0.29938924    -0.73500
O264        O  0.81733853  0.31121840  0.31775319    -0.52800
O265        O  0.80288244  0.35034047  0.26520610    -0.97500
O266        O  0.74535820  0.35548071  0.21743778    -0.54700
O267        O  0.74783944  0.36421696  0.27253150    -0.74100
C268        C  0.73053707  0.36713278  0.28941937     0.98300
O269        O  0.68358503  0.29431575  0.32764851    -0.62900
O270        O  0.68291298  0.24376909  0.21940359    -0.57700
O271        O  0.67482171  0.31325264  0.28081021    -0.94400
O272        O  0.66974792  0.29590197  0.24160373    -0.92800
O273        O  0.69542980  0.20745550  0.26778228    -0.93100
O274        O  0.70167353  0.22118810  0.31663585    -0.91900
C275        C  0.66154339  0.30811308  0.26100797     1.17100
H276        H  0.73332687  0.22911650  0.22864212     0.33100
H277        H  0.73842178  0.26282070  0.32642649     0.43900
H278        H  0.71043234  0.32924353  0.24891554     0.37400
H279        H  0.80880219  0.29750128  0.25789820     0.33900
H280        H  0.74402744  0.18875257  0.31502029     0.25700
H281        H  0.80742707  0.32599459  0.32351328     0.31700
H282        H  0.79982456  0.35275658  0.28356768     0.37600
H283        H  0.70166540  0.19825194  0.25274248     0.32000
H284        H  0.66887973  0.24526142  0.23184173     0.30900
H285        H  0.67809876  0.29780955  0.19000408     0.32600
H286        H  0.73209404  0.36535395  0.22629115     0.31500
H287        H  0.69403506  0.23762553  0.32111862     0.35500
H288        H  0.67092438  0.28367985  0.31866185     0.28300
H289        H  0.82182873  0.24595721  0.20275447     0.32500
H290        H  0.79618008  0.35649615  0.21514269     0.35400
H291        H  0.67495405  0.24822306  0.20285808     0.28000
H292        H  0.69148527  0.28261639  0.34016367     0.40800
H293        H  0.80829727  0.25933260  0.34903146     0.30900
H294        H  0.76911216  0.20480130  0.31370579     0.38500
H295        H  0.73557335  0.34379603  0.20647891     0.30400
H296        H  0.82485624  0.30401611  0.33351785     0.30400
H297        H  0.82436913  0.27457343  0.20996795     0.30700
Zr298      Zr  0.71317417  0.75039527  0.28538379     2.17500
O299        O  0.68062987  0.71895050  0.27558078    -0.51700
O300        O  0.70933455  0.74915806  0.33119212    -0.74900
O301        O  0.72856757  0.70785791  0.29379737    -0.81700
O302        O  0.66564407  0.80482166  0.27474001    -0.83400
O303        O  0.76712787  0.70306928  0.27451958    -0.79000
O304        O  0.66921086  0.76481539  0.29036361    -0.90700
O305        O  0.73792916  0.77653657  0.34824577    -0.76600
O306        O  0.75681973  0.75296771  0.29822058    -0.86100
O307        O  0.71866386  0.79225015  0.30034685    -0.85800
O308        O  0.73787825  0.74067326  0.24833523    -0.72600
O309        O  0.70247949  0.77716845  0.25007061    -0.84700
Zr310      Zr  0.77714571  0.81319004  0.24171232     2.26400
Zr311      Zr  0.78182512  0.74459386  0.26127154     2.06300
Zr312      Zr  0.70883430  0.81910368  0.26506596     2.10000
Zr313      Zr  0.76222987  0.79462611  0.31341028     1.78800
O314        O  0.68059779  0.83716787  0.23279737    -0.93500
O315        O  0.79035203  0.77076275  0.34183381    -0.41300
O316        O  0.75244956  0.82254662  0.27867678    -0.77900
O317        O  0.78828963  0.78636977  0.27706669    -0.96600
O318        O  0.77170979  0.77160004  0.22615918    -0.89900
O319        O  0.73371157  0.81041031  0.22830548    -0.92800
C320        C  0.71974063  0.76040761  0.35013079     1.01000
C321        C  0.65621312  0.78469739  0.28466633     1.13900
C322        C  0.74773209  0.69453173  0.28670717     1.04700
O323        O  0.81266193  0.72950976  0.29271200    -0.94900
O324        O  0.82367414  0.75739157  0.24473654    -0.90700
O325        O  0.82074122  0.79933269  0.23597152    -0.83800
C326        C  0.83327911  0.77862582  0.23763731     1.11300
O327        O  0.69377608  0.73853181  0.20500197    -0.96900
Zr328      Zr  0.72807437  0.76846125  0.21368000     1.88900
O329        O  0.77981147  0.81531508  0.19558938    -0.73500
O330        O  0.79528035  0.71450898  0.22923249    -0.52800
O331        O  0.74436616  0.73357128  0.18864212    -0.97500
O332        O  0.69460100  0.78731065  0.18722912    -0.54700
O333        O  0.75008692  0.78889415  0.17886904    -0.74100
C334        C  0.76824174  0.80499506  0.17671257     0.98300
O335        O  0.80816468  0.84632205  0.25084730    -0.62900
O336        O  0.69221176  0.84492053  0.29931160    -0.57700
O337        O  0.76392389  0.85662476  0.23713643    -0.94400
O338        O  0.72493713  0.86126012  0.25566276    -0.92800
O339        O  0.75101960  0.83212200  0.33731751    -0.93100
O340        O  0.79935907  0.82025029  0.32425566    -0.91900
C341        C  0.74495314  0.86991467  0.24457670     1.17100
H342        H  0.70717810  0.79605300  0.31408836     0.33100
H343        H  0.80598286  0.78874763  0.28190063     0.43900
H344        H  0.73002481  0.82251522  0.21496962     0.37400
H345        H  0.73432477  0.72364807  0.24299453     0.33900
H346        H  0.80772185  0.77261303  0.33469359     0.25700
H347        H  0.80434371  0.70107607  0.23885375     0.31700
H348        H  0.74224696  0.73904302  0.17073169     0.37600
H349        H  0.73434563  0.82811632  0.34517392     0.32000
H350        H  0.70703983  0.85493348  0.30523428     0.30900
H351        H  0.67150190  0.85093537  0.24156267     0.32600
H352        H  0.70144207  0.80385115  0.18173223     0.31500
H353        H  0.80043864  0.83287977  0.31037056     0.35500
H354        H  0.81971059  0.83922994  0.26406625     0.28300
H355        H  0.67828356  0.70918828  0.29149831     0.32500
H356        H  0.69353279  0.73638002  0.18633351     0.35400
H357        H  0.68083056  0.85730832  0.29077770     0.28000
H358        H  0.81883591  0.84791162  0.23544557     0.40800
H359        H  0.82248949  0.74466423  0.29765149     0.30900
H360        H  0.79078404  0.78051852  0.35780492     0.38500
H361        H  0.68080442  0.79154403  0.19927058     0.30400
H362        H  0.77926517  0.70647872  0.22326026     0.30400
H363        H  0.68884715  0.70707687  0.26370810     0.30700
C364        C  0.20669967  0.21443583  0.02772029     0.02800
C365        C  0.18620134  0.19740146  0.02997794    -0.13300
C366        C  0.17212848  0.18993892  0.00857299     0.00300
C367        C  0.17874399  0.19947603  0.98454547    -0.11900
C368        C  0.19944247  0.21626453  0.98173339     0.02800
C369        C  0.21317944  0.22369782  0.00350523    -0.11300
H370        H  0.18062869  0.19038956  0.04851378     0.08400
H371        H  0.16819950  0.19316820  0.96798419     0.05900
H372        H  0.22894942  0.23677937  0.00160835     0.05800
Zr373      Zr  0.18995291  0.25345155  0.77485487     2.17500
O374        O  0.15647627  0.24814815  0.80656229    -0.51700
O375        O  0.18841322  0.20753597  0.77396769    -0.74900
O376        O  0.14711908  0.25179408  0.75673021    -0.81700
O377        O  0.23790063  0.26466836  0.82978427    -0.83400
O378        O  0.14719787  0.26708469  0.71630226    -0.79000
O379        O  0.19694428  0.25391065  0.82023084    -0.90700
O380        O  0.22091907  0.19264774  0.75015251    -0.76600
O381        O  0.19874888  0.24177524  0.73233884    -0.86100
O382        O  0.23334143  0.23984715  0.77560136    -0.85800
O383        O  0.18196334  0.29132352  0.75068937    -0.72600
O384        O  0.21440398  0.28896635  0.78932389    -0.84700
Zr385      Zr  0.25996781  0.30038584  0.72111417     2.26400
Zr386      Zr  0.19148496  0.27947871  0.70775052     2.06300
Zr387      Zr  0.25820571  0.27537749  0.78917519     2.10000
Zr388      Zr  0.24247592  0.22885052  0.73290550     1.78800
O389        O  0.27298057  0.30463202  0.82153704    -0.93500
O390        O  0.22922970  0.20361980  0.69662225    -0.41300
O391        O  0.26812573  0.26361176  0.74649219    -0.77900
O392        O  0.23511909  0.26516388  0.70687403    -0.96600
O393        O  0.21682050  0.31457730  0.72110227    -0.89900
O394        O  0.25149146  0.31237642  0.76368873    -0.92800
C395        C  0.20142570  0.18948457  0.76433096     1.01000
C396        C  0.21516714  0.25780295  0.83613115     1.13900
C397        C  0.13592474  0.25752062  0.73574361     1.04700
O398        O  0.17798446  0.25051107  0.67461310    -0.94900
O399        O  0.21009111  0.29410878  0.66762890    -0.90700
O400        O  0.25111759  0.30584811  0.67621903    -0.83800
C401        C  0.23226978  0.30224629  0.66091192     1.11300
O402        O  0.17569455  0.33846115  0.79416102    -0.96900
Zr403      Zr  0.20827277  0.32604868  0.76376399     1.88900
O404        O  0.25931251  0.34585196  0.71704185    -0.73500
O405        O  0.16406252  0.31332187  0.69197212    -0.52800
O406        O  0.17313346  0.35023600  0.74516131    -0.97500
O407        O  0.22559907  0.34897534  0.79999569    -0.54700
O408        O  0.22918130  0.36175929  0.74336760    -0.74100
C409        C  0.24679248  0.36424629  0.72665692     0.98300
O410        O  0.29668821  0.29079012  0.69429766    -0.62900
O411        O  0.28379049  0.24081505  0.80642084    -0.57700
O412        O  0.30094124  0.30914167  0.74111537    -0.94400
O413        O  0.30227970  0.28836317  0.77914087    -0.92800
O414        O  0.27628078  0.20496622  0.75413547    -0.93100
O415        O  0.27661877  0.21890097  0.70336412    -0.91900
C416        C  0.31267736  0.30141131  0.76121011     1.17100
H417        H  0.23580264  0.22577089  0.78709600     0.33100
H418        H  0.23983173  0.26056499  0.68981249     0.43900
H419        H  0.26273726  0.32580783  0.76900325     0.37400
H420        H  0.16438275  0.29664180  0.75224751     0.33900
H421        H  0.23460658  0.18619965  0.70092306     0.25700
H422        H  0.15242889  0.30508692  0.67964932     0.31700
H423        H  0.17882314  0.35444671  0.72774014     0.37600
H424        H  0.29090960  0.21676496  0.75520791     0.32000
H425        H  0.30008040  0.24144592  0.79696452     0.30900
H426        H  0.28601116  0.29509292  0.83137913     0.32600
H427        H  0.24054600  0.35835425  0.79341310     0.31500
H428        H  0.28856089  0.23331911  0.70457624     0.35500
H429        H  0.30817525  0.28018070  0.70490821     0.28300
H430        H  0.14720955  0.23255453  0.80190045     0.32500
H431        H  0.17641044  0.35710478  0.79479643     0.35400
H432        H  0.28841255  0.24618769  0.82383116     0.28000
H433        H  0.29018393  0.27890195  0.68136209     0.40800
H434        H  0.19328529  0.24008844  0.67128352     0.30900
H435        H  0.21032738  0.20317976  0.69750621     0.38500
H436        H  0.23302080  0.33578640  0.81120517     0.30400
H437        H  0.15297713  0.31763516  0.70648675     0.30400
H438        H  0.14411810  0.26202759  0.80363076     0.30700
Zr439      Zr  0.18338232  0.80599780  0.76833130     2.17500
O440        O  0.14746553  0.80369569  0.79753145    -0.51700
O441        O  0.19156122  0.85088269  0.76834421    -0.74900
O442        O  0.19807698  0.81531079  0.81103267    -0.81700
O443        O  0.13422441  0.79981743  0.71565667    -0.83400
O444        O  0.23633867  0.79568441  0.81752186    -0.79000
O445        O  0.14314410  0.82119331  0.75204187    -0.90700
O446        O  0.21939870  0.86031648  0.73670367    -0.76600
O447        O  0.22796808  0.81254985  0.76377223    -0.86100
O448        O  0.18943621  0.81468174  0.72438858    -0.85800
O449        O  0.20239264  0.76764374  0.78342780    -0.72600
O450        O  0.16698683  0.76966860  0.74660448    -0.84700
Zr451      Zr  0.23843146  0.74660410  0.71217902     2.26400
Zr452      Zr  0.24729796  0.77419238  0.77804046     2.06300
Zr453      Zr  0.17369129  0.77843786  0.70245865     2.10000
Zr454      Zr  0.23417887  0.82063020  0.71975273     1.78800
O455        O  0.14088766  0.74812148  0.69054562    -0.93500
O456        O  0.27236015  0.84257174  0.73449657    -0.41300
O457        O  0.21878155  0.78471896  0.69732304    -0.77900
O458        O  0.25494283  0.78281232  0.73382406    -0.96600
O459        O  0.23255514  0.73753803  0.75591801    -0.89900
O460        O  0.19363754  0.73986646  0.71629157    -0.92800
C461        C  0.20478551  0.86646014  0.75510456     1.01000
C462        C  0.12839970  0.81521109  0.73354535     1.13900
C463        C  0.21754122  0.80945399  0.82483420     1.04700
O464        O  0.28433134  0.79950293  0.78971765    -0.94900
O465        O  0.28708203  0.75325182  0.76742462    -0.90700
O466        O  0.28115014  0.73725329  0.72783126    -0.83800
C467        C  0.29464957  0.74120632  0.74781991     1.11300
O468        O  0.15388649  0.72999925  0.79199096    -0.96900
Zr469      Zr  0.18781884  0.73148779  0.76044629     1.88900
O470        O  0.23224780  0.70148870  0.71358387    -0.73500
O471        O  0.25249918  0.74394065  0.81268386    -0.52800
O472        O  0.20312020  0.71067596  0.79906569    -0.97500
O473        O  0.15151869  0.70600047  0.74668739    -0.54700
O474        O  0.20507223  0.69169565  0.74552818    -0.74100
C475        C  0.22047649  0.68561607  0.72771551     0.98300
O476        O  0.26871094  0.73723323  0.67840588    -0.62900
O477        O  0.16042906  0.80763681  0.66888838    -0.57700
O478        O  0.22717244  0.74751553  0.66786051    -0.94400
O479        O  0.18780996  0.76425060  0.66058245    -0.92800
O480        O  0.22057764  0.84414955  0.68214801    -0.93100
O481        O  0.26786385  0.82173847  0.68798393    -0.91900
C482        C  0.20879414  0.75414685  0.65307421     1.17100
H483        H  0.18033349  0.82969301  0.71910369     0.33100
H484        H  0.27302505  0.78481985  0.73076567     0.43900
H485        H  0.18798583  0.72597581  0.70592712     0.37400
H486        H  0.19852763  0.76514440  0.80119620     0.33900
H487        H  0.27218911  0.85887114  0.72521742     0.25700
H488        H  0.25842361  0.72829252  0.80444747     0.31700
H489        H  0.21876141  0.70154511  0.79396549     0.37600
H490        H  0.21365316  0.83120896  0.67051459     0.32000
H491        H  0.14209982  0.80395099  0.66586498     0.30900
H492        H  0.13208203  0.74406100  0.70664632     0.32600
H493        H  0.15496616  0.70187939  0.72872264     0.31500
H494        H  0.27463908  0.80431986  0.68754298     0.35500
H495        H  0.28320227  0.74902607  0.68071399     0.28300
H496        H  0.14758633  0.81991508  0.80671882     0.32500
H497        H  0.15237445  0.71204505  0.79702573     0.35400
H498        H  0.16058636  0.82450546  0.67680391     0.28000
H499        H  0.27572331  0.72030743  0.68237960     0.40800
H500        H  0.29178384  0.80493033  0.77331851     0.30900
H501        H  0.26866579  0.84707745  0.75232403     0.38500
H502        H  0.13687137  0.71781188  0.74590810     0.30400
H503        H  0.26758411  0.75002403  0.82230635     0.30400
H504        H  0.15252379  0.79091942  0.81041353     0.30700
Zr505      Zr  0.74746793  0.25533867  0.79441777     2.17500
O506        O  0.78160634  0.25545242  0.82623477    -0.51700
O507        O  0.74294311  0.20955986  0.79080201    -0.74900
O508        O  0.73165984  0.24718989  0.83710218    -0.81700
O509        O  0.79932478  0.26520119  0.74443387    -0.83400
O510        O  0.69518618  0.26985311  0.84278474    -0.79000
O511        O  0.79029448  0.24430103  0.78123052    -0.90700
O512        O  0.71737369  0.20187030  0.75667806    -0.76600
O513        O  0.70290788  0.24885915  0.78764041    -0.86100
O514        O  0.74353134  0.24796069  0.74996607    -0.85800
O515        O  0.72756851  0.29388390  0.80813432    -0.72600
O516        O  0.76418959  0.29232224  0.77358445    -0.84700
Zr517      Zr  0.69364787  0.31615564  0.73571175     2.26400
Zr518      Zr  0.68269615  0.28726982  0.80097869     2.06300
Zr519      Zr  0.75938742  0.28484103  0.72914061     2.10000
Zr520      Zr  0.69907070  0.24180474  0.74305066     1.78800
O521        O  0.79505815  0.31237593  0.71853298    -0.93500
O522        O  0.66189485  0.21835956  0.75773465    -0.41300
O523        O  0.71460535  0.27853817  0.72135682    -0.77900
O524        O  0.67753801  0.27900802  0.75645080    -0.96600
O525        O  0.69845739  0.32415733  0.77983111    -0.89900
O526        O  0.73836666  0.32285623  0.74193128    -0.92800
C527        C  0.73226546  0.19460879  0.77476595     1.01000
C528        C  0.80549517  0.25069917  0.76325487     1.13900
C529        C  0.71341442  0.25548466  0.85097650     1.04700
O530        O  0.64860425  0.25880619  0.81393738    -0.94900
O531        O  0.64203994  0.30634760  0.78636586    -0.90700
O532        O  0.64906593  0.32233665  0.74676812    -0.83800
C533        C  0.63444314  0.31736221  0.76569683     1.11300
O534        O  0.77803298  0.32794918  0.81689397    -0.96900
Zr535      Zr  0.74313195  0.33042586  0.78603787     1.88900
O536        O  0.69351556  0.36136685  0.74320929    -0.73500
O537        O  0.67087469  0.31950959  0.83144210    -0.52800
O538        O  0.73215108  0.35364015  0.82420248    -0.97500
O539        O  0.77964069  0.35472235  0.77084279    -0.54700
O540        O  0.72478921  0.37051260  0.77181965    -0.74100
C541        C  0.70644360  0.37694661  0.75674484     0.98300
O542        O  0.66189949  0.31726308  0.70153180    -0.62900
O543        O  0.76980525  0.25498160  0.69574540    -0.57700
O544        O  0.71204776  0.32764239  0.69501130    -0.94400
O545        O  0.74841467  0.30494576  0.68862502    -0.92800
O546        O  0.70935489  0.21889149  0.70451166    -0.93100
O547        O  0.66607511  0.24276969  0.71015844    -0.91900
C548        C  0.73094617  0.32051767  0.68136050     1.17100
H549        H  0.75332069  0.23344598  0.74481648     0.33100
H550        H  0.65972946  0.27636701  0.75232213     0.43900
H551        H  0.74434579  0.33716373  0.73219707     0.37400
H552        H  0.73109132  0.29659725  0.82593332     0.33900
H553        H  0.66140117  0.20316926  0.74691778     0.25700
H554        H  0.65720150  0.31169228  0.84175785     0.31700
H555        H  0.71368415  0.35738764  0.82232074     0.37600
H556        H  0.72586193  0.22605882  0.69888984     0.32000
H557        H  0.78245934  0.26385468  0.68500632     0.30900
H558        H  0.80500549  0.30288534  0.70582576     0.32600
H559        H  0.77307213  0.36503990  0.75648135     0.31500
H560        H  0.67101825  0.25686821  0.69878465     0.35500
H561        H  0.66282152  0.33446343  0.69417142     0.28300
H562        H  0.77996391  0.23937585  0.83575127     0.32500
H563        H  0.78224264  0.34560377  0.82120333     0.35400
H564        H  0.77971753  0.24142442  0.70427592     0.28000
H565        H  0.66853746  0.30602133  0.68815931     0.40800
H566        H  0.63912179  0.26817750  0.82707711     0.30900
H567        H  0.66680655  0.21193076  0.77478129     0.38500
H568        H  0.79094865  0.34212886  0.76285388     0.30400
H569        H  0.68571217  0.32068795  0.84315391     0.30400
H570        H  0.77685140  0.26872393  0.83847124     0.30700
Zr571      Zr  0.73574339  0.81619819  0.79838568     2.17500
O572        O  0.73094786  0.84702950  0.83219692    -0.51700
O573        O  0.78119028  0.82249540  0.79201584    -0.74900
O574        O  0.74964873  0.79950214  0.83936357    -0.81700
O575        O  0.72009221  0.86484601  0.74678377    -0.83400
O576        O  0.73222969  0.76061673  0.84548873    -0.79000
O577        O  0.73631191  0.86050272  0.78692352    -0.90700
O578        O  0.79530297  0.79359262  0.76374286    -0.76600
O579        O  0.74899644  0.77368625  0.79264779    -0.86100
O580        O  0.74439680  0.81300312  0.75414924    -0.85800
O581        O  0.70063062  0.79066979  0.81263385    -0.72600
O582        O  0.69680724  0.82723732  0.77677552    -0.84700
Zr583      Zr  0.68324051  0.75551781  0.74000462     2.26400
Zr584      Zr  0.71344680  0.74783172  0.80511657     2.06300
Zr585      Zr  0.70549292  0.82316520  0.73232867     2.10000
Zr586      Zr  0.75766729  0.77055759  0.74857833     1.78800
O587        O  0.67057539  0.85175946  0.72157815    -0.93500
O588        O  0.78453944  0.73667925  0.76523819    -0.41300
O589        O  0.71879961  0.78056994  0.72598808    -0.77900
O590        O  0.72259500  0.74395578  0.76085619    -0.96600
O591        O  0.67442784  0.75871662  0.78398730    -0.89900
O592        O  0.67027280  0.79799015  0.74603166    -0.92800
C593        C  0.79887168  0.81231068  0.77875737     1.01000
C594        C  0.73012572  0.87372109  0.76732187     1.13900
C595        C  0.74496520  0.77989706  0.85302312     1.04700
O596        O  0.74628980  0.71680052  0.81544966    -0.94900
O597        O  0.69586115  0.70678848  0.79222457    -0.90700
O598        O  0.67354724  0.71362960  0.75552301    -0.83800
C599        C  0.68094837  0.69958086  0.77407874     1.11300
O600        O  0.65816295  0.83324979  0.82316730    -0.96900
Zr601      Zr  0.66203887  0.80127427  0.79035022     1.88900
O602        O  0.63688889  0.75473340  0.74236535    -0.73500
O603        O  0.68454875  0.73267891  0.83797789    -0.52800
O604        O  0.64091536  0.78374732  0.82762672    -0.97500
O605        O  0.63322264  0.83495147  0.77668633    -0.54700
O606        O  0.62427124  0.77995619  0.77464300    -0.74100
C607        C  0.61971249  0.76438757  0.75667939     0.98300
O608        O  0.69093883  0.72363496  0.70772497    -0.62900
O609        O  0.73344045  0.84038458  0.69969482    -0.57700
O610        O  0.67086930  0.76921700  0.69791584    -0.94400
O611        O  0.69034638  0.80697252  0.69092177    -0.92800
O612        O  0.78168310  0.78490694  0.71172381    -0.93100
O613        O  0.76296947  0.73870202  0.71594805    -0.91900
C614        C  0.67750963  0.78756208  0.68345518     1.17100
H615        H  0.75746460  0.82473359  0.74883019     0.33100
H616        H  0.72685895  0.72669720  0.75697944     0.43900
H617        H  0.65521363  0.80193739  0.73608490     0.37400
H618        H  0.69780088  0.79329922  0.83052805     0.33900
H619        H  0.80122134  0.73912014  0.75677236     0.25700
H620        H  0.69577996  0.72650399  0.85189959     0.31700
H621        H  0.62258033  0.78788081  0.82526074     0.37600
H622        H  0.78138866  0.80353044  0.71267346     0.32000
H623        H  0.74067012  0.82541687  0.69120038     0.30900
H624        H  0.67562219  0.85949713  0.70519511     0.32600
H625        H  0.62579863  0.82924229  0.76036615     0.31500
H626        H  0.74860526  0.74164628  0.70394286     0.35500
H627        H  0.70184950  0.73202318  0.69489660     0.28300
H628        H  0.74772829  0.84775166  0.84099389     0.32500
H629        H  0.63964658  0.83454764  0.82676880     0.35400
H630        H  0.72175261  0.84798051  0.68689720     0.28000
H631        H  0.70252482  0.71121314  0.71593460     0.40800
H632        H  0.74203848  0.71086608  0.83279437     0.30900
H633        H  0.78783686  0.74114407  0.78319269     0.38500
H634        H  0.64466648  0.84905438  0.77193043     0.30400
H635        H  0.67650948  0.74808788  0.84478689     0.30400
H636        H  0.71919925  0.83912917  0.84459784     0.30700
C637        C  0.48458282  0.71260330  0.70895468     0.02800
C638        C  0.46232511  0.72132502  0.72101835    -0.13300
C639        C  0.43817869  0.71121060  0.71471899     0.00300
C640        C  0.43659010  0.69244446  0.69592794    -0.11900
C641        C  0.45861495  0.68350925  0.68417324     0.02800
C642        C  0.48239704  0.69324950  0.69102124    -0.11300
H643        H  0.46373156  0.73610885  0.73501223     0.08400
H644        H  0.41820725  0.68517318  0.68983813     0.05900
H645        H  0.49929577  0.68554005  0.68215255     0.05800
C646        C  0.27993225  0.50756696  0.69372669     0.02800
C647        C  0.26682745  0.53048664  0.69705561    -0.13300
C648        C  0.27617562  0.55292351  0.68604709     0.00300
C649        C  0.29875304  0.55213752  0.67170464    -0.11900
C650        C  0.31198227  0.52949737  0.66831887     0.02800
C651        C  0.30287551  0.50753087  0.67991818    -0.11300
H652        H  0.24893618  0.53071324  0.70730480     0.08400
H653        H  0.30624590  0.56923976  0.66320521     0.05900
H654        H  0.31331189  0.49010374  0.67735972     0.05800
C655        C  0.49335333  0.35430787  0.71740578     0.02800
C656        C  0.47119665  0.34788388  0.73125432    -0.13300
C657        C  0.44707574  0.35776174  0.72404223     0.00300
C658        C  0.44552779  0.37414150  0.70280575    -0.25100
C659        C  0.46733795  0.38059969  0.68883343     0.02800
C660        C  0.49102724  0.37062957  0.69628663    -0.11300
H661        H  0.47270763  0.33525037  0.74744394     0.08400
H662        H  0.42715681  0.38159376  0.69675971     0.05900
H663        H  0.50794746  0.37615562  0.68584887     0.05800
C664        C  0.64674194  0.51343653  0.73021334     0.02800
C665        C  0.63014073  0.51656338  0.70934554    -0.13300
C666        C  0.62209516  0.54048911  0.70147009     0.00300
C667        C  0.63091620  0.56180603  0.71439610    -0.11900
C668        C  0.64828611  0.55934894  0.73487316     0.02800
C669        C  0.65621990  0.53502005  0.74261671    -0.11300
H670        H  0.62334418  0.50023854  0.69903585     0.08400
H671        H  0.62489939  0.58033051  0.70793250     0.05900
H672        H  0.66915319  0.53290142  0.75864634     0.05800
C673        C  0.51822403  0.33453717  0.30042314     0.02800
C674        C  0.51684444  0.35143974  0.32087007    -0.13300
C675        C  0.49300982  0.35921689  0.33032586     0.00300
C676        C  0.47049974  0.35037609  0.31860570    -0.11900
C677        C  0.47167506  0.33374018  0.29796157     0.02800
C678        C  0.49556086  0.32580337  0.28916799    -0.11300
H679        H  0.53429349  0.35794227  0.32990136     0.08400
H680        H  0.45204355  0.35638768  0.32559651     0.05900
H681        H  0.49651831  0.31317045  0.27310457     0.05800
C682        C  0.69772044  0.51196145  0.31381512     0.02800
C683        C  0.67311061  0.51227557  0.32446947    -0.13300
C684        C  0.66299998  0.53439419  0.33436570     0.00300
C685        C  0.67678350  0.55676920  0.33245231    -0.11900
C686        C  0.70128761  0.55730817  0.32176611     0.02800
C687        C  0.71167085  0.53475310  0.31207003    -0.11300
H688        H  0.66218695  0.49500140  0.32621354     0.08400
H689        H  0.66834186  0.57383464  0.33988916     0.05900
H690        H  0.73081243  0.53470440  0.30433697     0.05800
C691        C  0.51478272  0.75460302  0.33252487     0.02800
C692        C  0.49312990  0.76764245  0.32287745    -0.13300
C693        C  0.46808589  0.75907200  0.32837547     0.00300
C694        C  0.46511525  0.73757688  0.34391999    -0.11900
C695        C  0.48631759  0.72430150  0.35317660     0.02800
C696        C  0.51085825  0.73247279  0.34690664    -0.11300
H697        H  0.49566765  0.78458715  0.31161177     0.08400
H698        H  0.44620701  0.73042169  0.34816318     0.05900
H699        H  0.52700985  0.72151973  0.35372301     0.05800
C700        C  0.27928655  0.50697698  0.30884648     0.02800
C701        C  0.29919195  0.51039991  0.32675120    -0.13300
C702        C  0.30653266  0.53459893  0.33448817     0.00300
C703        C  0.29379968  0.55564296  0.32437732    -0.11900
C704        C  0.27403922  0.55271105  0.30646852     0.02800
C705        C  0.26673514  0.52844888  0.29888499    -0.11300
H706        H  0.30869088  0.49427003  0.33528373     0.08400
H707        H  0.29951193  0.57439051  0.33019309     0.05900
H708        H  0.25198583  0.52649542  0.28449753     0.05800
C709        C  0.68151611  0.73574896  0.49482834     0.02800
C710        C  0.68402897  0.75000500  0.51722429    -0.13300
C711        C  0.67254585  0.74180162  0.54008581     0.00300
C712        C  0.65823136  0.71926393  0.53998102    -0.11900
C713        C  0.65618901  0.70468074  0.51793327     0.02800
C714        C  0.66822131  0.71279750  0.49575808    -0.11300
H715        H  0.69430993  0.76771171  0.51671083     0.08400
H716        H  0.64929327  0.71252015  0.55723973     0.05900
H717        H  0.66663950  0.70131320  0.47887440     0.05800
C718        C  0.70488153  0.35400334  0.49002048     0.02800
C719        C  0.71713108  0.34636026  0.51268852    -0.13300
C720        C  0.70977825  0.35663715  0.53624883     0.00300
C721        C  0.69067365  0.37544592  0.53644353    -0.11900
C722        C  0.67860095  0.38335206  0.51394311     0.02800
C723        C  0.68564061  0.37245099  0.49092058    -0.11300
H724        H  0.73175146  0.33193146  0.51197123     0.08400
H725        H  0.68404653  0.38314164  0.55422389     0.05900
H726        H  0.67609798  0.37843962  0.47355236     0.05800
C727        C  0.26913572  0.71227656  0.47584923     0.02800
C728        C  0.25864550  0.72074052  0.49879043    -0.13300
C729        C  0.26805305  0.71160130  0.52209226     0.00300
C730        C  0.28725433  0.69307930  0.52236785    -0.11900
C731        C  0.29757045  0.68428665  0.49962774     0.02800
C732        C  0.28877907  0.69418564  0.47652805    -0.11300
H733        H  0.24380247  0.73499089  0.49860218     0.08400
H734        H  0.29454626  0.68586007  0.54032293     0.05900
H735        H  0.29751950  0.68786680  0.45908207     0.05800
C736        C  0.29125193  0.33023456  0.47861453     0.02800
C737        C  0.28009360  0.32295007  0.50172864    -0.13300
C738        C  0.28979965  0.33251180  0.52465726     0.00300
C739        C  0.30990498  0.35000105  0.52418790    -0.11900
C740        C  0.32068500  0.35776712  0.50117612     0.02800
C741        C  0.31118288  0.34790647  0.47844817    -0.11300
H742        H  0.26519905  0.30875665  0.50197919     0.08400
H743        H  0.31737952  0.35734881  0.54191201     0.05900
H744        H  0.31999014  0.35319831  0.46059354     0.05800
O745        O  0.91159330  0.99561747  0.99753971    -0.86800
O746        O  0.05685175  0.99951908  0.99889701    -0.87000
O747        O  0.98299627  0.97001989  0.95401862    -0.88700
O748        O  0.98586568  0.96343251  0.03650034    -0.87400
O749        O  0.98410732  0.99070437  0.07010311    -0.87000
O750        O  0.98168020  0.00213200  0.92468372    -0.88400
O751        O  0.02732896  0.96772188  0.99495651    -0.86800
O752        O  0.94362646  0.96626670  0.99387712    -0.86400
Zr753      Zr  0.98483500  0.98724215  0.99677375     2.84300
O754        O  0.01029454  0.01109966  0.02410461    -1.08400
O755        O  0.95752166  0.01376310  0.97367874    -1.09100
C756        C  0.91986037  0.97287709  0.99460639     1.06300
C757        C  0.05051541  0.97608936  0.99686303     1.06200
C758        C  0.98160889  0.97849075  0.93095967     1.09200
C759        C  0.98535463  0.96828278  0.06053555     1.07000
H760        H  0.02028602  0.00554428  0.96120230     0.32600
O761        O  0.00947143  0.01495140  0.97252864    -1.29400
H762        H  0.94809160  0.99803280  0.03447795     0.32200
O763        O  0.95843224  0.00955988  0.02464680    -1.31000
O764        O  0.05457547  0.08071771  0.00329994    -0.86800
O765        O  0.90933445  0.07688689  0.00625210    -0.88300
O766        O  0.02322954  0.04453355  0.92838598    -0.86900
O767        O  0.02645459  0.03165770  0.07178473    -0.86900
O768        O  0.94311334  0.03383234  0.07291476    -0.86700
O769        O  0.93992580  0.04099003  0.92898099    -0.86500
O770        O  0.98040962  0.11263137  0.96316422    -0.86800
O771        O  0.98212466  0.10646019  0.04679258    -0.86300
O772        O  0.98132506  0.08339756  0.93125297    -0.87400
O773        O  0.98312009  0.07307156  0.07485747    -0.86500
O774        O  0.05444941  0.04320672  0.95917127    -0.86900
O775        O  0.90991450  0.03977728  0.96059690    -0.86600
O776        O  0.91143172  0.03412496  0.04257463    -0.86300
O777        O  0.05634246  0.03620924  0.04044114    -0.86700
O778        O  0.02314022  0.11086507  0.00434960    -0.87000
O779        O  0.93918792  0.10853931  0.00685845    -0.88300
Zr780      Zr  0.03418256  0.03958194  0.00008491     2.83100
Zr781      Zr  0.93180484  0.03682396  0.00130493     2.83500
Zr782      Zr  0.98200170  0.04132604  0.94926734     2.84100
Zr783      Zr  0.98421452  0.03357950  0.05169716     2.83400
Zr784      Zr  0.98171656  0.08922365  0.00374077     2.84200
O785        O  0.95769296  0.06073646  0.02807709    -1.08900
O786        O  0.00748887  0.06604804  0.97614632    -1.08400
C787        C  0.04685328  0.10381596  0.00440116     1.06300
C788        C  0.91585798  0.10035122  0.00763918     1.08900
C789        C  0.04679213  0.04454556  0.93588201     1.06400
C790        C  0.04976303  0.03304632  0.06380601     1.06800
C791        C  0.91943490  0.03407999  0.06582108     1.06400
C792        C  0.91664095  0.04062527  0.93706016     1.05900
C793        C  0.98073041  0.10625308  0.93942555     1.06400
C794        C  0.98232240  0.09686908  0.06947846     1.05900
H795        H  0.94479676  0.07571099  0.96698097     0.32500
O796        O  0.95603119  0.06481275  0.97668066    -1.30000
H797        H  0.01913765  0.07214766  0.03898227     0.32600
O798        O  0.00844726  0.06234243  0.02776546    -1.31400
O799        O  0.47845456  0.60264892  0.54086934    -0.86800
O800        O  0.48468116  0.45968777  0.54054557    -0.87000
O801        O  0.43752228  0.53038704  0.56689214    -0.88700
O802        O  0.51999050  0.53279151  0.57574999    -0.87400
O803        O  0.55398267  0.53380331  0.54839150    -0.87000
O804        O  0.40971348  0.53125282  0.53298553    -0.88400
O805        O  0.47947329  0.48993760  0.57103661    -0.86800
O806        O  0.47630490  0.57172165  0.57141747    -0.86400
Zr807      Zr  0.48091240  0.53111559  0.55038615     2.84300
O808        O  0.51023032  0.50693845  0.52746223    -1.08400
O809        O  0.45694321  0.55653224  0.52273047    -1.09100
C810        C  0.47599695  0.59502918  0.56408096     1.06300
C811        C  0.48133523  0.46678193  0.56384313     1.06200
C812        C  0.41483558  0.53104111  0.55705232     1.09200
C813        C  0.54417064  0.53357920  0.57090040     1.07000
H814        H  0.44703284  0.49440931  0.53125464     0.32600
O815        O  0.45850941  0.50532870  0.52200870    -1.29400
H816        H  0.51736323  0.56864865  0.53980955     0.32200
O817        O  0.50833414  0.55795054  0.52800863    -1.31000
O818        O  0.49163854  0.46113997  0.45709515    -0.86800
O819        O  0.48722314  0.60442802  0.45920577    -0.88300
O820        O  0.41548295  0.49008128  0.48940869    -0.86900
O821        O  0.56005204  0.49355586  0.50621514    -0.86900
O822        O  0.55705929  0.57606526  0.50788938    -0.86700
O823        O  0.41260706  0.57138378  0.49331092    -0.86500
O824        O  0.45133200  0.53242395  0.42292476    -0.86800
O825        O  0.53412148  0.53538472  0.43160288    -0.86300
O826        O  0.41790873  0.53254655  0.45095748    -0.87400
O827        O  0.56175204  0.53658770  0.46563411    -0.86500
O828        O  0.44678992  0.45988943  0.49374012    -0.86900
O829        O  0.44268301  0.60275400  0.49564920    -0.86600
O830        O  0.52440440  0.60487258  0.50533116    -0.86300
O831        O  0.53030386  0.46201987  0.50197112    -0.86700
O832        O  0.49492634  0.49265181  0.42712770    -0.87000
O833        O  0.49206070  0.57493780  0.42790732    -0.88300
Zr834      Zr  0.48783081  0.48115504  0.49894877     2.83100
Zr835      Zr  0.48429304  0.58276137  0.49985139     2.83500
Zr836      Zr  0.43492250  0.53109718  0.49410828     2.84100
Zr837      Zr  0.53746998  0.53400644  0.50484962     2.83400
Zr838      Zr  0.49089570  0.53329896  0.44818335     2.84200
O839        O  0.51349893  0.55902210  0.47659660    -1.08900
O840        O  0.46377360  0.50658425  0.47106180    -1.08400
C841        C  0.49445075  0.46920150  0.43397790     1.06300
C842        C  0.48997614  0.59787930  0.43581105     1.08900
C843        C  0.42341154  0.46708980  0.49014869     1.06400
C844        C  0.55353699  0.47008078  0.50452591     1.06800
C845        C  0.54817348  0.59887196  0.50807392     1.06400
C846        C  0.41944607  0.59476366  0.49379604     1.05900
C847        C  0.42719633  0.53270230  0.42826731     1.06400
C848        C  0.55671516  0.53660637  0.44156193     1.05900
H849        H  0.45197077  0.56813158  0.45969313     0.32500
O850        O  0.46189340  0.55764249  0.47111724    -1.30000
H851        H  0.52706819  0.49833820  0.46672450     0.32600
O852        O  0.51505297  0.50820998  0.47631880    -1.31400
C853        C  0.34270076  0.37516901  0.50098144    -0.05600
C854        C  0.36326063  0.37135772  0.51788927    -0.05500
C855        C  0.38397391  0.38789116  0.51806867    -0.23700
C856        C  0.38428164  0.40867555  0.50155152     0.18600
C857        C  0.36367823  0.41265165  0.48441132     0.15800
C858        C  0.34318186  0.39568175  0.48401377    -0.18700
C859        C  0.36360625  0.43389892  0.46846177    -0.20500
C860        C  0.38340391  0.45143055  0.47003068    -0.13100
C861        C  0.40383321  0.44760057  0.48707269     0.03600
C862        C  0.40448241  0.42594587  0.50241733    -0.25200
H863        H  0.36336212  0.35543655  0.53087614     0.08700
H864        H  0.39956705  0.38461729  0.53134903     0.12300
H865        H  0.32725559  0.39881992  0.47107359     0.12200
H866        H  0.34797233  0.43726164  0.45525137     0.12000
H867        H  0.38271943  0.46809940  0.45803419     0.12500
H868        H  0.42008368  0.42317618  0.51583352     0.14500
C869        C  0.31762626  0.66478498  0.49993674    -0.05600
C870        C  0.31279692  0.64131385  0.51130455    -0.05500
C871        C  0.33154373  0.62259576  0.51158788    -0.23700
C872        C  0.35556378  0.62728243  0.50088394     0.18600
C873        C  0.36060150  0.65093062  0.48937601     0.15800
C874        C  0.34145458  0.66945172  0.48869499    -0.18700
C875        C  0.38480386  0.65573767  0.47911299    -0.20500
C876        C  0.40397647  0.63744910  0.48064284    -0.13100
C877        C  0.39910178  0.61391401  0.49201543     0.03600
C878        C  0.37473833  0.60884607  0.50185837    -0.25200
H879        H  0.29437554  0.63743966  0.51977726     0.08700
H880        H  0.32735879  0.60456996  0.52041976     0.12300
H881        H  0.34518324  0.68763199  0.47993619     0.12200
H882        H  0.38899178  0.67371442  0.47017942     0.12000
H883        H  0.42258964  0.64161718  0.47272563     0.12500
H884        H  0.37090527  0.59079277  0.51083812     0.14500
C885        C  0.65781571  0.40229476  0.51453805    -0.05600
C886        C  0.66237714  0.42644588  0.52427704    -0.05500
C887        C  0.64298702  0.44464261  0.52406951    -0.23700
C888        C  0.61855659  0.43879282  0.51457954     0.18600
C889        C  0.61364352  0.41428141  0.50538366     0.15800
C890        C  0.63337649  0.39630072  0.50512721    -0.18700
C891        C  0.58907309  0.40816746  0.49661214    -0.20500
C892        C  0.56957935  0.42620355  0.49668537    -0.13100
C893        C  0.57428390  0.45086723  0.50523352     0.03600
C894        C  0.59896169  0.45698277  0.51418839    -0.25200
H895        H  0.68111879  0.43133507  0.53161493     0.08700
H896        H  0.64708787  0.46326932  0.53134708     0.12300
H897        H  0.62972752  0.37756368  0.49784908     0.12200
H898        H  0.58491994  0.38942266  0.48966436     0.12000
H899        H  0.55084738  0.42088964  0.48965116     0.12500
H900        H  0.60289018  0.47580492  0.52106797     0.14500
C901        C  0.64036275  0.68156527  0.51725418    -0.05600
C902        C  0.65025734  0.65900350  0.50748178    -0.05500
C903        C  0.63457352  0.63782936  0.50459140    -0.23700
C904        C  0.60857728  0.63905389  0.51090534     0.18600
C905        C  0.59854726  0.66176613  0.52068882     0.15800
C906        C  0.61454936  0.68269272  0.52414796    -0.18700
C907        C  0.57250987  0.66343510  0.52628556    -0.20500
C908        C  0.55643841  0.64293459  0.52206227    -0.13100
C909        C  0.56604767  0.62012784  0.51245472     0.03600
C910        C  0.59231749  0.61821951  0.50714841    -0.25200
H911        H  0.67012128  0.65787749  0.50188443     0.08700
H912        H  0.64264551  0.62069160  0.49694945     0.12300
H913        H  0.60671078  0.70021381  0.53119401     0.12200
H914        H  0.56449012  0.68070394  0.53369778     0.12000
H915        H  0.53635563  0.64493115  0.52656099     0.12500
H916        H  0.59994467  0.60083865  0.49958146     0.14500
C917        C  0.32708672  0.53784488  0.35366981    -0.05600
C918        C  0.32153282  0.54919573  0.37698039    -0.05500
C919        C  0.34028186  0.55100331  0.39590815    -0.23700
C920        C  0.36503650  0.54182113  0.39167361     0.18600
C921        C  0.37118201  0.53133623  0.36786760     0.15800
C922        C  0.35205182  0.52916106  0.34906052    -0.18700
C923        C  0.39622768  0.52288969  0.36351786    -0.20500
C924        C  0.41474011  0.52400875  0.38286025    -0.13100
C925        C  0.40843955  0.53329792  0.40697944     0.03600
C926        C  0.38358496  0.54258293  0.41103245    -0.25200
H927        H  0.30242787  0.55605803  0.38076210     0.08700
H928        H  0.33533471  0.55930759  0.41397339     0.12300
H929        H  0.35646502  0.52066819  0.33093398     0.12200
H930        H  0.40139722  0.51507971  0.34529282     0.12000
H931        H  0.43376790  0.51689708  0.37918289     0.12500
H932        H  0.37857036  0.55026115  0.42937682     0.14500
C933        C  0.48299802  0.70221041  0.37012942    -0.05600
C934        C  0.46847125  0.70441399  0.39233572    -0.05500
C935        C  0.46669980  0.68424990  0.40942012    -0.23700
C936        C  0.47922649  0.66146606  0.40440671     0.18600
C937        C  0.49334213  0.65882148  0.38176769     0.15800
C938        C  0.49529398  0.67929269  0.36485105    -0.18700
C939        C  0.50545057  0.63583211  0.37659847    -0.20500
C940        C  0.50392580  0.61575952  0.39389426    -0.13100
C941        C  0.49057034  0.61848303  0.41678107     0.03600
C942        C  0.47807018  0.64138080  0.42178619    -0.25200
H943        H  0.45904581  0.72201206  0.39676965     0.08700
H944        H  0.45574385  0.68655026  0.42665656     0.12300
H945        H  0.50639949  0.67748792  0.34763435     0.12200
H946        H  0.51625209  0.63344143  0.35928380     0.12000
H947        H  0.51370419  0.59830386  0.38965711     0.12500
H948        H  0.46738923  0.64357224  0.43922707     0.14500
C949        C  0.64004531  0.53360985  0.35032296    -0.05600
C950        C  0.61639476  0.52537298  0.34081689    -0.05500
C951        C  0.59498052  0.52477092  0.35663713    -0.23700
C952        C  0.59718772  0.53203998  0.38218275     0.18600
C953        C  0.62113653  0.54005614  0.39175454     0.15800
C954        C  0.64229013  0.54089152  0.37575866    -0.18700
C955        C  0.62366569  0.54701034  0.41722532    -0.20500
C956        C  0.60264709  0.54595716  0.43327230    -0.13100
C957        C  0.57867039  0.53804378  0.42411712     0.03600
C958        C  0.57602207  0.53123517  0.39841309    -0.25200
H959        H  0.61451285  0.51965586  0.32118058     0.08700
H960        H  0.57679259  0.51852272  0.34897494     0.12300
H961        H  0.66070629  0.54691233  0.38314531     0.12200
H962        H  0.64193536  0.55318361  0.42477161     0.12000
H963        H  0.60518661  0.55146710  0.45290087     0.12500
H964        H  0.55767648  0.52493439  0.39114544     0.14500
C965        C  0.49154343  0.37646236  0.35245800    -0.05600
C966        C  0.47532798  0.37088148  0.37295315    -0.05500
C967        C  0.47342233  0.38731926  0.39356765    -0.23700
C968        C  0.48732727  0.40994036  0.39387128     0.18600
C969        C  0.50362728  0.41576094  0.37329764     0.15800
C970        C  0.50593694  0.39883615  0.35296805    -0.18700
C971        C  0.51692829  0.43868785  0.37312648    -0.20500
C972        C  0.51380595  0.45588855  0.39286796    -0.13100
C973        C  0.49781190  0.45032304  0.41354585     0.03600
C974        C  0.48485113  0.42706637  0.41408961    -0.25200
H975        H  0.46421031  0.35366116  0.37306253     0.08700
H976        H  0.46079118  0.38250412  0.40909779     0.12300
H977        H  0.51831470  0.40342129  0.33715033     0.12200
H978        H  0.52946425  0.44350433  0.35751695     0.12000
H979        H  0.52411329  0.47358274  0.39206751     0.12500
H980        H  0.47227703  0.42267189  0.42980372     0.14500
C981        C  0.56203148  0.53430072  0.59286207    -0.05600
C982        C  0.58770792  0.52709829  0.58990697    -0.05500
C983        C  0.60460690  0.52732381  0.61054739    -0.23700
C984        C  0.59624450  0.53501253  0.63451020     0.18600
C985        C  0.57055588  0.54260784  0.63774640     0.15800
C986        C  0.55358232  0.54208263  0.61694186    -0.18700
C987        C  0.56231706  0.55046744  0.66177475    -0.20500
C988        C  0.57935812  0.55063664  0.68240338    -0.13100
C989        C  0.60475030  0.54274718  0.67932920     0.03600
C990        C  0.61310518  0.53499550  0.65534389    -0.25200
H991        H  0.59469252  0.52092020  0.57165176     0.08700
H992        H  0.62422660  0.52142442  0.60776974     0.12300
H993        H  0.53388648  0.54789489  0.61947215     0.12200
H994        H  0.54268502  0.55628091  0.66464780     0.12000
H995        H  0.57259427  0.55629531  0.70091609     0.12500
H996        H  0.63269754  0.52874348  0.65303621     0.14500
C997        C  0.46578500  0.39854487  0.66698999    -0.05600
C998        C  0.45456624  0.42237027  0.67010684    -0.05500
C999        C  0.45510714  0.44027554  0.65045371    -0.23700
C1000       C  0.46659600  0.43458053  0.62714464     0.18600
C1001       C  0.47714818  0.41038062  0.62343828     0.15800
C1002       C  0.47682721  0.39257206  0.64342947    -0.18700
C1003       C  0.48816534  0.40458210  0.59992332    -0.20500
C1004       C  0.48913323  0.42269086  0.58042225    -0.13100
C1005       C  0.47935581  0.44708114  0.58409529     0.03600
C1006       C  0.46792349  0.45276082  0.60759644    -0.25200
H1007       H  0.44609776  0.42741455  0.68809723     0.08700
H1008       H  0.44680887  0.45869870  0.65360141     0.12300
H1009       H  0.48534269  0.37415117  0.64079100     0.12200
H1010       H  0.49623451  0.38608298  0.59667170     0.12000
H1011       H  0.49802204  0.41774305  0.56261372     0.12500
H1012       H  0.45998946  0.47135619  0.61071165     0.14500
C1013       C  0.39307385  0.53213228  0.57480382    -0.05600
C1014       C  0.37029334  0.54434689  0.56754168    -0.05500
C1015       C  0.35016003  0.54669322  0.58466475    -0.23700
C1016       C  0.35234281  0.53660877  0.60926289     0.18600
C1017       C  0.37496720  0.52385003  0.61664881     0.15800
C1018       C  0.39525419  0.52185383  0.59943862    -0.18700
C1019       C  0.37688684  0.51333061  0.64111940    -0.20500
C1020       C  0.35654943  0.51541496  0.65809566    -0.13100
C1021       C  0.33411337  0.52829551  0.65097298     0.03600
C1022       C  0.33219340  0.53892210  0.62652045    -0.25200
H1023       H  0.36826296  0.55261208  0.54876113     0.08700
H1024       H  0.33291925  0.55647295  0.57869363     0.12300
H1025       H  0.41267814  0.51222287  0.60516433     0.12200
H1026       H  0.39404107  0.50339468  0.64707151     0.12000
H1027       H  0.35834706  0.50704210  0.67684784     0.12500
H1028       H  0.31472894  0.54844710  0.62073118     0.14500
C1029       C  0.45726289  0.66446525  0.66402324    -0.05600
C1030       C  0.45092859  0.63943244  0.66984865    -0.05500
C1031       C  0.45311648  0.62073656  0.65138096    -0.23700
C1032       C  0.46141584  0.62696237  0.62680675     0.18600
C1033       C  0.46691100  0.65236705  0.62066486     0.15800
C1034       C  0.46491505  0.67091693  0.63934668    -0.18700
C1035       C  0.47479720  0.65874448  0.59608738    -0.20500
C1036       C  0.47754794  0.64009940  0.57776056    -0.13100
C1037       C  0.47266521  0.61465228  0.58368675     0.03600
C1038       C  0.46452391  0.60824457  0.60834927    -0.25200
H1039       H  0.44520956  0.63425412  0.68892443     0.08700
H1040       H  0.44872016  0.60139117  0.65641305     0.12300
H1041       H  0.46984383  0.69030866  0.63493304     0.12200
H1042       H  0.47898941  0.67814288  0.59106774     0.12000
H1043       H  0.48383723  0.64563868  0.55897149     0.12500
H1044       H  0.46048621  0.58876170  0.61317701     0.14500
C1045       C  0.67068864  0.78482744  0.65623785    -0.05600
C1046       C  0.64633088  0.77574770  0.64947208    -0.05500
C1047       C  0.64112229  0.76785657  0.62466482    -0.23700
C1048       C  0.66044905  0.76808586  0.60630508     0.18600
C1049       C  0.68484278  0.77774859  0.61267594     0.15800
C1050       C  0.68966469  0.78654593  0.63748375    -0.18700
C1051       C  0.70436045  0.77718173  0.59451480    -0.20500
C1052       C  0.70007621  0.76632445  0.57067185    -0.13100
C1053       C  0.67609864  0.75600684  0.56431455     0.03600
C1054       C  0.65613868  0.75767503  0.58212425    -0.25200
H1055       H  0.63154472  0.77393877  0.66369755     0.08700
H1056       H  0.62232055  0.76046925  0.62017381     0.12300
H1057       H  0.70867688  0.79291109  0.64269439     0.12200
H1058       H  0.72323146  0.78434878  0.59905919     0.12000
H1059       H  0.71589390  0.76511452  0.55756516     0.12500
H1060       H  0.63741594  0.75019059  0.57746446     0.14500
C1061       C  0.65834560  0.58238097  0.74753054    -0.05600
C1062       C  0.68472021  0.58542464  0.75195409    -0.05500
C1063       C  0.69445802  0.60836926  0.76089584    -0.23700
C1064       C  0.67800503  0.62876459  0.76541866     0.18600
C1065       C  0.65134643  0.62547638  0.76203998     0.15800
C1066       C  0.64172459  0.60231429  0.75343232    -0.18700
C1067       C  0.63480770  0.64585023  0.76590881    -0.20500
C1068       C  0.64464462  0.66967872  0.77135646    -0.13100
C1069       C  0.67111412  0.67347299  0.77386756     0.03600
C1070       C  0.68774058  0.65274144  0.77178366    -0.25200
H1071       H  0.69792721  0.57039823  0.74746393     0.08700
H1072       H  0.71493681  0.61045428  0.76334348     0.12300
H1073       H  0.62132136  0.60008251  0.75039605     0.12200
H1074       H  0.61433662  0.64365641  0.76345532     0.12000
H1075       H  0.63159153  0.68547467  0.77269595     0.12500
H1076       H  0.70821618  0.65566056  0.77323807     0.14500
C1077       C  0.59288098  0.75704990  0.75203058    -0.05600
C1078       C  0.57475250  0.75756783  0.77165104    -0.05500
C1079       C  0.54968446  0.74931191  0.76730716    -0.23700
C1080       C  0.54225857  0.74091961  0.74313601     0.18600
C1081       C  0.56019750  0.74138527  0.72315242     0.15800
C1082       C  0.58534089  0.74913837  0.72777120    -0.18700
C1083       C  0.55279444  0.73405006  0.69877517    -0.20500
C1084       C  0.52799516  0.72572696  0.69423397    -0.13100
C1085       C  0.51018131  0.72376914  0.71411101     0.03600
C1086       C  0.51738483  0.73184540  0.73857891    -0.25200
H1087       H  0.58013817  0.76375325  0.79050778     0.08700
H1088       H  0.53618700  0.74937003  0.78283938     0.12300
H1089       H  0.59904804  0.74913004  0.71239111     0.12200
H1090       H  0.56619291  0.73476775  0.68316271     0.12000
H1091       H  0.52283674  0.72070748  0.67497669     0.12500
H1092       H  0.50398327  0.73052372  0.75414240     0.14500
C1093       C  0.73224213  0.33132688  0.65554231    -0.05600
C1094       C  0.72861318  0.35733682  0.65217846    -0.05500
C1095       C  0.72645843  0.36776436  0.62786043    -0.23700
C1096       C  0.72706422  0.35221327  0.60646600     0.18600
C1097       C  0.73123641  0.32604110  0.60955257     0.15800
C1098       C  0.73433365  0.31577317  0.63413812    -0.18700
C1099       C  0.73097321  0.31052539  0.58808299    -0.20500
C1100       C  0.72517898  0.32060185  0.56405009    -0.13100
C1101       C  0.72005289  0.34651413  0.56088233     0.03600
C1102       C  0.72221593  0.36229916  0.58220015    -0.25200
H1103       H  0.72695506  0.36955200  0.66849730     0.08700
H1104       H  0.72325090  0.38785716  0.62584525     0.12300
H1105       H  0.73676918  0.29561796  0.63669097     0.12200
H1106       H  0.73411265  0.29041640  0.59002328     0.12000
H1107       H  0.72349821  0.30781359  0.54820453     0.12500
H1108       H  0.71907121  0.38239611  0.58014662     0.14500
C1109       C  0.51917411  0.34397084  0.72395223    -0.05600
C1110       C  0.53491039  0.33550718  0.70419486    -0.05500
C1111       C  0.56016112  0.32838162  0.70883938    -0.23700
C1112       C  0.57038419  0.32937003  0.73343947     0.18600
C1113       C  0.55478431  0.33694064  0.75383869     0.15800
C1114       C  0.52911254  0.34417009  0.74899639    -0.18700
C1115       C  0.56541604  0.33746019  0.77849349    -0.20500
C1116       C  0.59117724  0.33074048  0.78272163    -0.13100
C1117       C  0.60687108  0.32381096  0.76231317     0.03600
C1118       C  0.59611238  0.32307182  0.73776475    -0.25200
H1119       H  0.52771379  0.33475644  0.68487000     0.08700
H1120       H  0.57182777  0.32238204  0.69304936     0.12300
H1121       H  0.51725643  0.35072977  0.76441357     0.12200
H1122       H  0.55386395  0.34316508  0.79446808     0.12000
H1123       H  0.59895986  0.33144903  0.80181846     0.12500
H1124       H  0.60782234  0.31739904  0.72186419     0.14500
C1125       C  0.69936461  0.40402567  0.75492974    -0.05600
C1126       C  0.71793605  0.42303104  0.75737811    -0.05500
C1127       C  0.71128693  0.44848860  0.75429800    -0.23700
C1128       C  0.68585922  0.45543596  0.74909253     0.18600
C1129       C  0.66689936  0.43648732  0.74766340     0.15800
C1130       C  0.67377364  0.41100332  0.75039870    -0.18700
C1131       C  0.64141186  0.44326940  0.74299251    -0.20500
C1132       C  0.63490534  0.46842373  0.73854687    -0.13100
C1133       C  0.65371913  0.48740461  0.73851811     0.03600
C1134       C  0.67915016  0.48083393  0.74457905    -0.25200
H1135       H  0.73774697  0.41814246  0.76097879     0.08700
H1136       H  0.72609303  0.46270684  0.75563709     0.12300
H1137       H  0.65919129  0.39654863  0.74890978     0.12200
H1138       H  0.62655813  0.42904960  0.74224015     0.12000
H1139       H  0.61508065  0.47300472  0.73458606     0.12500
H1140       H  0.69384122  0.49523778  0.74465288     0.14500
C1141       C  0.21351501  0.74997321  0.62577877    -0.05600
C1142       C  0.19424169  0.74250390  0.60871948    -0.05500
C1143       C  0.20068061  0.73465791  0.58410515    -0.23700
C1144       C  0.22643693  0.73407680  0.57644721     0.18600
C1145       C  0.24559546  0.74265132  0.59333592     0.15800
C1146       C  0.23895798  0.75090960  0.61746765    -0.18700
C1147       C  0.27135050  0.74193018  0.58635450    -0.20500
C1148       C  0.27832556  0.73197014  0.56306970    -0.13100
C1149       C  0.25968477  0.72287325  0.54620387     0.03600
C1150       C  0.23362008  0.72446040  0.55266149    -0.25200
H1151       H  0.17450074  0.74164692  0.61475691     0.08700
H1152       H  0.18567830  0.72825256  0.57141238     0.12300
H1153       H  0.25394617  0.75712357  0.63031888     0.12200
H1154       H  0.28617273  0.74853841  0.59916421     0.12000
H1155       H  0.29841302  0.73128340  0.55819032     0.12500
H1156       H  0.21918715  0.71746887  0.53962487     0.14500
C1157       C  0.32077265  0.73134107  0.74759045    -0.05600
C1158       C  0.32460163  0.70557619  0.74344614    -0.05500
C1159       C  0.34910926  0.69623915  0.73932244    -0.23700
C1160       C  0.36996965  0.71275556  0.73820890     0.18600
C1161       C  0.36637611  0.73875391  0.74269635     0.15800
C1162       C  0.34175107  0.74784779  0.74799646    -0.18700
C1163       C  0.38718745  0.75527598  0.74032207    -0.20500
C1164       C  0.41090770  0.74631353  0.73210038    -0.13100
C1165       C  0.41435850  0.72056873  0.72677078     0.03600
C1166       C  0.39401695  0.70381375  0.73112297    -0.25200
H1167       H  0.30846831  0.69277706  0.74280641     0.08700
H1168       H  0.35155901  0.67629853  0.73575070     0.12300
H1169       H  0.33862330  0.76786048  0.75065830     0.12200
H1170       H  0.38480922  0.77527134  0.74363163     0.12000
H1171       H  0.42614622  0.75973055  0.72884731     0.12500
H1172       H  0.39654337  0.68382629  0.72784817     0.14500
C1173       C  0.26252732  0.57727987  0.68901842    -0.05600
C1174       C  0.26077493  0.59423910  0.66840382    -0.05500
C1175       C  0.25052698  0.61826868  0.67155983    -0.23700
C1176       C  0.24186166  0.62585861  0.69542275     0.18600
C1177       C  0.24252298  0.60870510  0.71608872     0.15800
C1178       C  0.25267170  0.58443368  0.71271024    -0.18700
C1179       C  0.23392732  0.61648612  0.73998742    -0.20500
C1180       C  0.22562305  0.64127544  0.74357132    -0.13100
C1181       C  0.22582981  0.65866227  0.72332980     0.03600
C1182       C  0.23344427  0.65062137  0.69914586    -0.25200
H1183       H  0.26769838  0.58902156  0.64982024     0.08700
H1184       H  0.24996071  0.63112084  0.65547287     0.12300
H1185       H  0.25402007  0.57159786  0.72877165     0.12200
H1186       H  0.23429989  0.60361879  0.75605799     0.12000
H1187       H  0.22003366  0.64713074  0.76240786     0.12500
H1188       H  0.23352035  0.66386871  0.68335989     0.14500
C1189       C  0.28135158  0.32257935  0.54944906    -0.05600
C1190       C  0.29974464  0.31217587  0.56597610    -0.05500
C1191       C  0.29327554  0.30525845  0.59063940    -0.23700
C1192       C  0.26827360  0.30874780  0.59926195     0.18600
C1193       C  0.24926118  0.31834625  0.58258953     0.15800
C1194       C  0.25591373  0.32511598  0.55756324    -0.18700
C1195       C  0.22419787  0.32150300  0.59154802    -0.20500
C1196       C  0.21824183  0.31570500  0.61689340    -0.13100
C1197       C  0.23735445  0.30703565  0.63368365     0.03600
C1198       C  0.26222236  0.30326418  0.62452420    -0.25200
H1199       H  0.31936570  0.30992715  0.55987908     0.08700
H1200       H  0.30797748  0.29771538  0.60315331     0.12300
H1201       H  0.24171656  0.33321987  0.54481942     0.12200
H1202       H  0.20931925  0.32874814  0.57907491     0.12000
H1203       H  0.19892295  0.31864551  0.62354645     0.12500
H1204       H  0.27703850  0.29615913  0.63718175     0.14500
C1205       C  0.25281712  0.38984370  0.71710558    -0.05600
C1206       C  0.26347386  0.39259772  0.69280259    -0.05500
C1207       C  0.26929685  0.41634799  0.68310219    -0.23700
C1208       C  0.26501065  0.43785937  0.69767145     0.18600
C1209       C  0.25427592  0.43557876  0.72213749     0.15800
C1210       C  0.24792386  0.41151731  0.73164551    -0.18700
C1211       C  0.25052150  0.45738631  0.73666314    -0.20500
C1212       C  0.25818048  0.48102518  0.72732747    -0.13100
C1213       C  0.26945950  0.48322560  0.70322427     0.03600
C1214       C  0.27193356  0.46154951  0.68825135    -0.25200
H1215       H  0.26712249  0.37630096  0.68108446     0.08700
H1216       H  0.27751184  0.41785172  0.66430148     0.12300
H1217       H  0.23975217  0.40962147  0.75043520     0.12200
H1218       H  0.24225973  0.45608723  0.75544889     0.12000
H1219       H  0.25600571  0.49742308  0.73924959     0.12500
H1220       H  0.27977646  0.46301004  0.66928391     0.14500
C1221       C  0.34017409  0.30790829  0.76291255    -0.05600
C1222       C  0.35893360  0.28894845  0.76273250    -0.05500
C1223       C  0.38461236  0.29496680  0.75775905    -0.23700
C1224       C  0.39189777  0.32007551  0.75297177     0.18600
C1225       C  0.37336911  0.33935171  0.75516796     0.15800
C1226       C  0.34771507  0.33314710  0.76001491    -0.18700
C1227       C  0.38041820  0.36445710  0.75089117    -0.20500
C1228       C  0.40496492  0.37033150  0.74246428    -0.13100
C1229       C  0.42309132  0.35128834  0.73801353     0.03600
C1230       C  0.41679597  0.32617318  0.74451296    -0.25200
H1231       H  0.35345622  0.26935189  0.76472782     0.08700
H1232       H  0.39849880  0.27988107  0.75645215     0.12300
H1233       H  0.33329633  0.34784689  0.76009449     0.12200
H1234       H  0.36659571  0.37950719  0.75299231     0.12000
H1235       H  0.40949377  0.38985632  0.73839469     0.12500
H1236       H  0.43057645  0.31127647  0.74136360     0.14500
C1237       C  0.06689217  0.12360460  0.00570494    -0.05600
C1238       C  0.06174951  0.14833396  0.99736733    -0.05500
C1239       C  0.08114977  0.16650474  0.99690925    -0.23700
C1240       C  0.10602243  0.16035171  0.00497652     0.18600
C1241       C  0.11114725  0.13586683  0.01448049     0.15800
C1242       C  0.09163433  0.11766341  0.01466424    -0.18700
C1243       C  0.13584792  0.12986096  0.02317896    -0.20500
C1244       C  0.15548012  0.14769772  0.02174210    -0.13100
C1245       C  0.15084049  0.17170756  0.01131471     0.03600
C1246       C  0.12596417  0.17806797  0.00326335    -0.25200
H1247       H  0.04287381  0.15345304  0.99048439     0.08700
H1248       H  0.07679535  0.18525462  0.98983514     0.12300
H1249       H  0.09578940  0.09879572  0.02158208     0.12200
H1250       H  0.14006644  0.11126792  0.03075882     0.12000
H1251       H  0.17451247  0.14255760  0.02817697     0.12500
H1252       H  0.12223973  0.19672850  0.99557233     0.14500
C1253       C  0.20885985  0.25364938  0.86336727    -0.05600
C1254       C  0.18298908  0.25253383  0.87066895    -0.05500
C1255       C  0.17615258  0.24597074  0.89539078    -0.23700
C1256       C  0.19500289  0.24026570  0.91348762     0.18600
C1257       C  0.22110502  0.24221161  0.90684934     0.15800
C1258       C  0.22792120  0.24909349  0.88185382    -0.18700
C1259       C  0.23986206  0.23652004  0.92516897    -0.20500
C1260       C  0.23283258  0.22835230  0.94949909    -0.13100
C1261       C  0.20689099  0.22581763  0.95610573     0.03600
C1262       C  0.18808883  0.23219766  0.93796345    -0.25200
H1263       H  0.16781733  0.25634401  0.85708888     0.08700
H1264       H  0.15605837  0.24483291  0.90019110     0.12300
H1265       H  0.24791309  0.24990950  0.87659384     0.12200
H1266       H  0.25997584  0.23791638  0.92054689     0.12000
H1267       H  0.24777421  0.22341142  0.96296950     0.12500
H1268       H  0.16802755  0.23083487  0.94285846     0.14500
C1269       C  0.69193964  0.74446834  0.47002339    -0.05600
C1270       C  0.71639598  0.75529788  0.46813324    -0.05500
C1271       C  0.72674238  0.76109626  0.44427765    -0.23700
C1272       C  0.71288647  0.75592384  0.42194981     0.18600
C1273       C  0.68815581  0.74541004  0.42377925     0.15800
C1274       C  0.67772711  0.74029628  0.44765086    -0.18700
C1275       C  0.67432160  0.73968729  0.40170666    -0.20500
C1276       C  0.68489424  0.74422260  0.37790257    -0.13100
C1277       C  0.70937820  0.75491928  0.37565767     0.03600
C1278       C  0.72329541  0.76084714  0.39784767    -0.25200
H1279       H  0.72780920  0.75857018  0.48502500     0.08700
H1280       H  0.74576106  0.76912792  0.44327487     0.12300
H1281       H  0.65857485  0.73256316  0.44877514     0.12200
H1282       H  0.65535516  0.73153961  0.40284380     0.12000
H1283       H  0.67365161  0.73968407  0.36119132     0.12500
H1284       H  0.74223456  0.76901376  0.39637818     0.14500
C1285       C  0.62854282  0.78422678  0.29034991    -0.05600
C1286       C  0.61022780  0.79270884  0.27257480    -0.05500
C1287       C  0.58398861  0.78992951  0.27747205    -0.23700
C1288       C  0.57570266  0.77918177  0.30048789     0.18600
C1289       C  0.59416019  0.77218366  0.31898995     0.15800
C1290       C  0.62031540  0.77438034  0.31367691    -0.18700
C1291       C  0.58624569  0.76266126  0.34244446    -0.20500
C1292       C  0.56037857  0.75874392  0.34714737    -0.13100
C1293       C  0.54168995  0.76336274  0.32822535     0.03600
C1294       C  0.54950290  0.77456548  0.30512069    -0.25200
H1295       H  0.61622789  0.80058205  0.25453442     0.08700
H1296       H  0.57022969  0.79579350  0.26312986     0.12300
H1297       H  0.63436795  0.76827897  0.32767627     0.12200
H1298       H  0.60011748  0.75787126  0.35709181     0.12000
H1299       H  0.55510432  0.75143976  0.36563264     0.12500
H1300       H  0.53550757  0.77862382  0.29038982     0.14500
C1301       C  0.71531416  0.58173522  0.32156798    -0.05600
C1302       C  0.71283020  0.59823417  0.34229910    -0.05500
C1303       C  0.72050790  0.62332091  0.34039757    -0.23700
C1304       C  0.73138540  0.63232799  0.31791071     0.18600
C1305       C  0.73637058  0.61540298  0.29786849     0.15800
C1306       C  0.72830743  0.59014954  0.29981183    -0.18700
C1307       C  0.74805818  0.62440748  0.27569113    -0.20500
C1308       C  0.75331669  0.65010743  0.27280924    -0.13100
C1309       C  0.74658493  0.66722849  0.29185978     0.03600
C1310       C  0.73628338  0.65814800  0.31469704    -0.25200
H1311       H  0.70378326  0.59201004  0.35969848     0.08700
H1312       H  0.71709260  0.63586427  0.35618232     0.12300
H1313       H  0.73056190  0.57763584  0.28379604     0.12200
H1314       H  0.75229861  0.61173889  0.26022547     0.12000
H1315       H  0.76129662  0.65680937  0.25506520     0.12500
H1316       H  0.73131611  0.67128332  0.32957661     0.14500
C1317       C  0.71054914  0.34190139  0.46534902    -0.05600
C1318       C  0.69009846  0.33297241  0.45051606    -0.05500
C1319       C  0.69421818  0.32377032  0.42619115    -0.23700
C1320       C  0.71891887  0.32334461  0.41612057     0.18600
C1321       C  0.73990742  0.33154492  0.43093726     0.15800
C1322       C  0.73561475  0.34065360  0.45569183    -0.18700
C1323       C  0.76458828  0.33091039  0.42041370    -0.20500
C1324       C  0.76828116  0.32256330  0.39539300    -0.13100
C1325       C  0.74731580  0.31494240  0.38048018     0.03600
C1326       C  0.72275236  0.31518989  0.39123324    -0.25200
H1327       H  0.67073167  0.33348644  0.45769361     0.08700
H1328       H  0.67798060  0.31738203  0.41507188     0.12300
H1329       H  0.75147925  0.34758516  0.46700343     0.12200
H1330       H  0.78096306  0.33713255  0.43141048     0.12000
H1331       H  0.78736264  0.32264855  0.38751849     0.12500
H1332       H  0.70637725  0.30912858  0.38010525     0.14500
C1333       C  0.70883325  0.48724727  0.30646805    -0.05600
C1334       C  0.72180575  0.48409101  0.28341092    -0.05500
C1335       C  0.72968016  0.46002354  0.27575280    -0.23700
C1336       C  0.72454912  0.43874338  0.29097297     0.18600
C1337       C  0.71206160  0.44193995  0.31443212     0.15800
C1338       C  0.70477602  0.46606022  0.32216519    -0.18700
C1339       C  0.70640772  0.42090187  0.32959286    -0.20500
C1340       C  0.71258636  0.39673626  0.32141541    -0.13100
C1341       C  0.72487847  0.39308757  0.29806201     0.03600
C1342       C  0.73117260  0.41430763  0.28303670    -0.25200
H1343       H  0.72509983  0.50007992  0.27096372     0.08700
H1344       H  0.73922907  0.45798083  0.25767835     0.12300
H1345       H  0.69534426  0.46827081  0.34029805     0.12200
H1346       H  0.69680789  0.42309903  0.34762859     0.12000
H1347       H  0.70772867  0.38083423  0.33346108     0.12500
H1348       H  0.74055721  0.41177841  0.26493065     0.14500
C1349       C  0.54321828  0.32570399  0.29075469    -0.05600
C1350       C  0.54732924  0.29992568  0.28627333    -0.05500
C1351       C  0.57082012  0.29139894  0.27716004    -0.23700
C1352       C  0.59063087  0.30852074  0.27229206     0.18600
C1353       C  0.58652157  0.33455715  0.27636269     0.15800
C1354       C  0.56288590  0.34295946  0.28557966    -0.18700
C1355       C  0.60639880  0.35168329  0.27188665    -0.20500
C1356       C  0.63051378  0.34299009  0.26483582    -0.13100
C1357       C  0.63499934  0.31714460  0.26152027     0.03600
C1358       C  0.61482076  0.29998945  0.26455725    -0.25200
H1359       H  0.53243307  0.28629817  0.29023076     0.08700
H1360       H  0.57360965  0.27138848  0.27428253     0.12300
H1361       H  0.55976329  0.36289410  0.28873466     0.12200
H1362       H  0.60361266  0.37167651  0.27489059     0.12000
H1363       H  0.64607540  0.35635720  0.26307004     0.12500
H1364       H  0.61844639  0.27996504  0.26269994     0.14500
C1365       C  0.25180151  0.74065053  0.35700034    -0.05600
C1366       C  0.25568102  0.71457945  0.35969794    -0.05500
C1367       C  0.25745776  0.70357949  0.38374202    -0.23700
C1368       C  0.25618691  0.71863038  0.40543228     0.18600
C1369       C  0.25239994  0.74492350  0.40291949     0.15800
C1370       C  0.24967357  0.75572162  0.37867244    -0.18700
C1371       C  0.25226048  0.76002429  0.42465038    -0.20500
C1372       C  0.25682601  0.74930249  0.44855611    -0.13100
C1373       C  0.26100910  0.72323293  0.45115123     0.03600
C1374       C  0.25973028  0.70791924  0.42952313    -0.25200
H1375       H  0.25714166  0.70266575  0.34313460     0.08700
H1376       H  0.26046319  0.68341995  0.38535355     0.12300
H1377       H  0.24687015  0.77588470  0.37661180     0.12200
H1378       H  0.24957094  0.78022369  0.42306701     0.12000
H1379       H  0.25808735  0.76157328  0.46486128     0.12500
H1380       H  0.26247206  0.68772908  0.43132702     0.14500
C1381       C  0.25191040  0.66356016  0.25886615    -0.05600
C1382       C  0.27659706  0.65542235  0.25238394    -0.05500
C1383       C  0.28488477  0.63121702  0.25851089    -0.23700
C1384       C  0.26871443  0.61468371  0.27149803     0.18600
C1385       C  0.24323577  0.62192475  0.27677652     0.15800
C1386       C  0.23482886  0.64640454  0.27016275    -0.18700
C1387       C  0.22723138  0.60497592  0.28977458    -0.20500
C1388       C  0.23682387  0.58176126  0.29854036    -0.13100
C1389       C  0.26252404  0.57531668  0.29451561     0.03600
C1390       C  0.27811906  0.59152611  0.28037510    -0.25200
H1391       H  0.28996469  0.66828883  0.24347842     0.08700
H1392       H  0.30434117  0.62582960  0.25408629     0.12300
H1393       H  0.21583083  0.65261142  0.27537404     0.12200
H1394       H  0.20761201  0.61000563  0.29387754     0.12000
H1395       H  0.22453422  0.56930700  0.30934610     0.12500
H1396       H  0.29791087  0.58641915  0.27708985     0.14500
C1397       C  0.35108724  0.78726478  0.29540446    -0.05600
C1398       C  0.35225454  0.78101998  0.32134359    -0.05500
C1399       C  0.37573871  0.77718350  0.33353762    -0.23700
C1400       C  0.39857149  0.77874406  0.31981794     0.18600
C1401       C  0.39781024  0.78544425  0.29377944     0.15800
C1402       C  0.37400252  0.79010049  0.28175865    -0.18700
C1403       C  0.42077487  0.78613873  0.28005987    -0.20500
C1404       C  0.44395408  0.77896723  0.29164300    -0.13100
C1405       C  0.44470982  0.77127082  0.31726984     0.03600
C1406       C  0.42195899  0.77234239  0.33145371    -0.25200
H1407       H  0.33480974  0.77847383  0.33206284     0.08700
H1408       H  0.37596197  0.77194498  0.35347430     0.12300
H1409       H  0.37319859  0.79436397  0.26159945     0.12200
H1410       H  0.42066048  0.79119634  0.26008530     0.12000
H1411       H  0.46104693  0.77821783  0.28017414     0.12500
H1412       H  0.42221463  0.76702663  0.35137627     0.14500
C1413       C  0.15621685  0.02934043  0.12873467    -0.05600
C1414       C  0.16107304  0.03818080  0.10407129    -0.05500
C1415       C  0.14122193  0.04016552  0.08630905    -0.23700
C1416       C  0.11615413  0.03378851  0.09316594     0.18600
C1417       C  0.11110681  0.02487000  0.11799257     0.15800
C1418       C  0.13125166  0.02242085  0.13554881    -0.18700
C1419       C  0.08596138  0.01892605  0.12492253    -0.20500
C1420       C  0.06594155  0.02187345  0.10743811    -0.13100
C1421       C  0.07075749  0.03060364  0.08265352     0.03600
C1422       C  0.09603295  0.03645820  0.07567642    -0.25200
H1423       H  0.18026727  0.04353221  0.09860581     0.08700
H1424       H  0.14540531  0.04700819  0.06734171     0.12300
H1425       H  0.12746872  0.01582225  0.15470513     0.12200
H1426       H  0.08176151  0.01209785  0.14388867     0.12000
H1427       H  0.04671851  0.01705850  0.11326588     0.12500
H1428       H  0.10010557  0.04331941  0.05667879     0.14500
C1429       C  0.20589815  0.98068947  0.19329000    -0.05600
C1430       C  0.18498101  0.96594479  0.20098677    -0.05500
C1431       C  0.18852466  0.94131053  0.20956295    -0.23700
C1432       C  0.21309815  0.93090781  0.21063680     0.18600
C1433       C  0.23453515  0.94589126  0.20436465     0.15800
C1434       C  0.23081791  0.97087846  0.19586323    -0.18700
C1435       C  0.25911297  0.93522002  0.20580416    -0.20500
C1436       C  0.26225694  0.90975388  0.21247290    -0.13100
C1437       C  0.24085609  0.89454604  0.21753565     0.03600
C1438       C  0.21639374  0.90548997  0.21711938    -0.25200
H1439       H  0.16568503  0.97328837  0.19956703     0.08700
H1440       H  0.17194414  0.93014121  0.21460825     0.12300
H1441       H  0.24705224  0.98212726  0.18994339     0.12200
H1442       H  0.27582242  0.94639303  0.20123484     0.12000
H1443       H  0.28131306  0.90174994  0.21283372     0.12500
H1444       H  0.19976577  0.89407176  0.22146054     0.14500
C1445       C  0.24762012  0.29760423  0.36835983    -0.05600
C1446       C  0.22747971  0.30814898  0.38219009    -0.05500
C1447       C  0.23123280  0.31504343  0.40755912    -0.23700
C1448       C  0.25513618  0.31132630  0.41931736     0.18600
C1449       C  0.27503787  0.29958409  0.40565116     0.15800
C1450       C  0.27108256  0.29270373  0.38038866    -0.18700
C1451       C  0.29902106  0.29598812  0.41702229    -0.20500
C1452       C  0.30375045  0.30517434  0.44127457    -0.13100
C1453       C  0.28449085  0.31770511  0.45467079     0.03600
C1454       C  0.25993250  0.32009992  0.44401361    -0.25200
H1455       H  0.20926735  0.31204953  0.37305551     0.08700
H1456       H  0.21575110  0.32397507  0.41769910     0.12300
H1457       H  0.28656524  0.28427605  0.36975802     0.12200
H1458       H  0.31438475  0.28691460  0.40681599     0.12000
H1459       H  0.32273508  0.30313072  0.44940907     0.12500
H1460       H  0.24513122  0.32991760  0.45434868     0.14500
C1461       C  0.44802142  0.32436614  0.28560816    -0.05600
C1462       C  0.44468844  0.29844162  0.28139859    -0.05500
C1463       C  0.42207914  0.28935616  0.27050337    -0.23700
C1464       C  0.40244444  0.30607832  0.26353134     0.18600
C1465       C  0.40596550  0.33228748  0.26701704     0.15800
C1466       C  0.42871078  0.34124190  0.27800882    -0.18700
C1467       C  0.38624546  0.34902968  0.26042630    -0.20500
C1468       C  0.36269510  0.33981510  0.25202099    -0.13100
C1469       C  0.35871154  0.31382130  0.24943140     0.03600
C1470       C  0.37886374  0.29700824  0.25443396    -0.25200
H1471       H  0.45938709  0.28514211  0.28712870     0.08700
H1472       H  0.41973863  0.26922978  0.26804159     0.12300
H1473       H  0.43131507  0.36129112  0.28091859     0.12200
H1474       H  0.38859787  0.36914487  0.26296475     0.12000
H1475       H  0.34707359  0.35290555  0.24881013     0.12500
H1476       H  0.37553501  0.27688082  0.25316013     0.14500
C1477       C  0.27200221  0.48109914  0.30037734    -0.05600
C1478       C  0.24648275  0.47518855  0.29401995    -0.05500
C1479       C  0.23969922  0.45082770  0.28645077    -0.23700
C1480       C  0.25819565  0.43171558  0.28547517     0.18600
C1481       C  0.28385507  0.43740526  0.29177117     0.15800
C1482       C  0.29061238  0.46198628  0.29878144    -0.18700
C1483       C  0.30238011  0.41833648  0.29126939    -0.20500
C1484       C  0.29549394  0.39370561  0.28515470    -0.13100
C1485       C  0.27005639  0.38772654  0.27893387     0.03600
C1486       C  0.25148828  0.40694723  0.27872210    -0.25200
H1487       H  0.23157159  0.48925781  0.29534142     0.08700
H1488       H  0.21990035  0.44684372  0.28178576     0.12300
H1489       H  0.31047875  0.46615553  0.30292018     0.12200
H1490       H  0.32215955  0.42239414  0.29595119     0.12000
H1491       H  0.31016870  0.37928547  0.28508838     0.12500
H1492       H  0.23179729  0.40249412  0.27398392     0.14500
C1493       C  0.22072885  0.22300794  0.05080133    -0.05600
C1494       C  0.22784671  0.24843220  0.05354505    -0.05500
C1495       C  0.23867305  0.25700888  0.07627358    -0.23700
C1496       C  0.24225323  0.24040439  0.09682691     0.18600
C1497       C  0.23606505  0.21462137  0.09392301     0.15800
C1498       C  0.22576101  0.20606444  0.07088207    -0.18700
C1499       C  0.23892335  0.19804470  0.11457272    -0.20500
C1500       C  0.24605488  0.20723888  0.13833990    -0.13100
C1501       C  0.25117472  0.23297128  0.14169858     0.03600
C1502       C  0.25030439  0.24936522  0.12067309    -0.25200
H1503       H  0.22408408  0.26195874  0.03848888     0.08700
H1504       H  0.24326233  0.27682662  0.07811477     0.12300
H1505       H  0.22087386  0.18632145  0.06888791     0.12200
H1506       H  0.23429549  0.17823470  0.11269300     0.12000
H1507       H  0.24643570  0.19444358  0.15445892     0.12500
H1508       H  0.25373883  0.26932590  0.12335576     0.14500
C1509       C  0.21883819  0.07445899  0.18270072    -0.05600
C1510       C  0.22784563  0.09218796  0.16493017    -0.05500
C1511       C  0.23244358  0.11707289  0.17206265    -0.23700
C1512       C  0.22789250  0.12469109  0.19705658     0.18600
C1513       C  0.22017589  0.10671544  0.21544627     0.15800
C1514       C  0.21587334  0.08163574  0.20817101    -0.18700
C1515       C  0.21606272  0.11437461  0.24056865    -0.20500
C1516       C  0.21921345  0.13966651  0.24727855    -0.13100
C1517       C  0.22589960  0.15768054  0.22884209     0.03600
C1518       C  0.23043060  0.15007852  0.20383304    -0.25200
H1519       H  0.23031846  0.08696856  0.14523847     0.08700
H1520       H  0.23869437  0.13054757  0.15783631     0.12300
H1521       H  0.20867521  0.06812812  0.22191909     0.12200
H1522       H  0.21030249  0.10085806  0.25495551     0.12000
H1523       H  0.21611718  0.14526405  0.26677142     0.12500
H1524       H  0.23623594  0.16391896  0.18976797     0.14500
C1525       C  0.98133537  0.11423086  0.09132488    -0.05600
C1526       C  0.97140292  0.10555660  0.11455346    -0.05500
C1527       C  0.97067762  0.12122279  0.13564601    -0.23700
C1528       C  0.98012344  0.14583470  0.13405699     0.18600
C1529       C  0.99018694  0.15494003  0.11087111     0.15800
C1530       C  0.99049828  0.13913268  0.08950695    -0.18700
C1531       C  0.00006711  0.17953263  0.10967839    -0.20500
C1532       C  0.00022441  0.19475226  0.13133409    -0.13100
C1533       C  0.99014604  0.18573831  0.15436218     0.03600
C1534       C  0.97997659  0.16130898  0.15547493    -0.25200
H1535       H  0.96400871  0.08657099  0.11641490     0.08700
H1536       H  0.96290871  0.11399436  0.15328767     0.12300
H1537       H  0.99836437  0.14596962  0.07174502     0.12200
H1538       H  0.00790971  0.18687288  0.09212064     0.12000
H1539       H  0.00813900  0.21358000  0.13012321     0.12500
H1540       H  0.97256534  0.15409412  0.17329482     0.14500
C1541       C  0.86406710  0.24846452  0.27078564    -0.05600
C1542       C  0.88242181  0.26726406  0.27518023    -0.05500
C1543       C  0.90784271  0.26376091  0.26763203    -0.23700
C1544       C  0.91530942  0.24127375  0.25584392     0.18600
C1545       C  0.89732273  0.22153991  0.25330143     0.15800
C1546       C  0.87185157  0.22529516  0.26065739    -0.18700
C1547       C  0.90473638  0.19884118  0.24216603    -0.20500
C1548       C  0.92917550  0.19627698  0.23203426    -0.13100
C1549       C  0.94666111  0.21648837  0.23235316     0.03600
C1550       C  0.93991017  0.23865157  0.24532750    -0.25200
H1551       H  0.87672512  0.28532078  0.28277548     0.08700
H1552       H  0.92136752  0.27904049  0.27000138     0.12300
H1553       H  0.85774172  0.21069524  0.25725317     0.12200
H1554       H  0.89135599  0.18333218  0.24052443     0.12000
H1555       H  0.93408485  0.17862710  0.22308216     0.12500
H1556       H  0.95310959  0.25437728  0.24588527     0.14500
C1557       C  0.04081474  0.23531769  0.21689496    -0.05600
C1558       C  0.05501776  0.24870225  0.19866215    -0.05500
C1559       C  0.08036551  0.25534235  0.20332246    -0.23700
C1560       C  0.09206797  0.24889254  0.22642680     0.18600
C1561       C  0.07765766  0.23699589  0.24573108     0.15800
C1562       C  0.05197756  0.23025739  0.24085678    -0.18700
C1563       C  0.08957681  0.23129762  0.26911001    -0.20500
C1564       C  0.11570250  0.23633447  0.27280455    -0.13100
C1565       C  0.13034111  0.24664278  0.25300097     0.03600
C1566       C  0.11820012  0.25345567  0.23012444    -0.25200
H1567       H  0.04669876  0.25325320  0.18029381     0.08700
H1568       H  0.09105358  0.26485263  0.18851928     0.12300
H1569       H  0.04122625  0.21995491  0.25507102     0.12200
H1570       H  0.07885665  0.22247513  0.28430201     0.12000
H1571       H  0.12467743  0.23127610  0.29072967     0.12500
H1572       H  0.12926105  0.26200606  0.21498007     0.14500
C1573       C  0.74656442  0.89703004  0.23954462    -0.05600
C1574       C  0.75258577  0.91384641  0.25911876    -0.05500
C1575       C  0.75780593  0.93916627  0.25352691    -0.23700
C1576       C  0.75692880  0.94790564  0.22828188     0.18600
C1577       C  0.74996799  0.93105279  0.20868923     0.15800
C1578       C  0.74501055  0.90572984  0.21444095    -0.18700
C1579       C  0.74882402  0.93957237  0.18352233    -0.20500
C1580       C  0.75551029  0.96429782  0.17757779    -0.13100
C1581       C  0.76377216  0.98098293  0.19660363     0.03600
C1582       C  0.76376068  0.97285450  0.22211588    -0.25200
H1583       H  0.75418355  0.90716084  0.27855628     0.08700
H1584       H  0.76309787  0.95173309  0.26881917     0.12300
H1585       H  0.74059935  0.89257934  0.19934128     0.12200
H1586       H  0.74327071  0.92696575  0.16834486     0.12000
H1587       H  0.75482635  0.97024864  0.15786005     0.12500
H1588       H  0.77021018  0.98547709  0.23693510     0.14500
C1589       C  0.77590632  0.16624107  0.23829102    -0.05600
C1590       C  0.80055174  0.16082545  0.22933071    -0.05500
C1591       C  0.80668215  0.13669718  0.22085757    -0.23700
C1592       C  0.78809305  0.11766386  0.22059757     0.18600
C1593       C  0.76326842  0.12277277  0.22964759     0.15800
C1594       C  0.75744723  0.14691629  0.23886707    -0.18700
C1595       C  0.74453467  0.10385330  0.22860953    -0.20500
C1596       C  0.75012164  0.08037771  0.21797935    -0.13100
C1597       C  0.77467241  0.07521602  0.20856967     0.03600
C1598       C  0.79374820  0.09386130  0.21067814    -0.25200
H1599       H  0.81513007  0.17532138  0.22885130     0.08700
H1600       H  0.82580455  0.13309478  0.21393881     0.12300
H1601       H  0.73831107  0.15092924  0.24554069     0.12200
H1602       H  0.72534883  0.10745291  0.23534215     0.12000
H1603       H  0.73496424  0.06657728  0.21637329     0.12500
H1604       H  0.81294885  0.09007818  0.20406787     0.14500
C1605       C  0.90000039  0.03491998  0.08595461    -0.05600
C1606       C  0.90644744  0.04443762  0.11001057    -0.05500
C1607       C  0.88806272  0.04619504  0.12895292    -0.23700
C1608       C  0.86300748  0.03811122  0.12428959     0.18600
C1609       C  0.85633602  0.02815958  0.10028246     0.15800
C1610       C  0.87480988  0.02690726  0.08115752    -0.18700
C1611       C  0.83139953  0.01934600  0.09597518    -0.20500
C1612       C  0.81336952  0.02008786  0.11542919    -0.13100
C1613       C  0.81989971  0.03018457  0.13917831     0.03600
C1614       C  0.84464077  0.03940889  0.14342246    -0.25200
H1615       H  0.92566487  0.05094356  0.11408115     0.08700
H1616       H  0.89347482  0.05376265  0.14728579     0.12300
H1617       H  0.86968000  0.01938882  0.06271154     0.12200
H1618       H  0.82597941  0.01155119  0.07774423     0.12000
H1619       H  0.79431849  0.01279223  0.11200290     0.12500
H1620       H  0.84977027  0.04681991  0.16192111     0.14500
C1621       C  0.04034339  0.81062896  0.18316942    -0.05600
C1622       C  0.05702832  0.81211154  0.16227954    -0.05500
C1623       C  0.08236902  0.80392635  0.16426162    -0.23700
C1624       C  0.09161748  0.79346036  0.18701410     0.18600
C1625       C  0.07470649  0.78983870  0.20755110     0.15800
C1626       C  0.04923156  0.79859235  0.20560163    -0.18700
C1627       C  0.08392069  0.77837112  0.22996973    -0.20500
C1628       C  0.10984531  0.77182173  0.23243154    -0.13100
C1629       C  0.12709340  0.77706463  0.21273377     0.03600
C1630       C  0.11768923  0.78737696  0.18983346    -0.25200
H1631       H  0.05067527  0.82014129  0.14436588     0.08700
H1632       H  0.09489266  0.80626074  0.14809283     0.12300
H1633       H  0.03682762  0.79705664  0.22193696     0.12200
H1634       H  0.07124964  0.77512951  0.24586354     0.12000
H1635       H  0.11670178  0.76398925  0.25027318     0.12500
H1636       H  0.13085447  0.79134889  0.17448118     0.14500
C1637       C  0.94722987  0.81712327  0.20878944    -0.05600
C1638       C  0.93648221  0.83296482  0.22709488    -0.05500
C1639       C  0.91295639  0.82718327  0.23800156    -0.23700
C1640       C  0.89958204  0.80556775  0.23053990     0.18600
C1641       C  0.91067588  0.78876441  0.21301798     0.15800
C1642       C  0.93465222  0.79457587  0.20233432    -0.18700
C1643       C  0.89699870  0.76713339  0.20571552    -0.20500
C1644       C  0.87218627  0.76283264  0.21483359    -0.13100
C1645       C  0.86068478  0.78021133  0.23118164     0.03600
C1646       C  0.87477584  0.80117955  0.23943680    -0.25200
H1647       H  0.94595412  0.85036795  0.23225857     0.08700
H1648       H  0.90476944  0.84013314  0.25154806     0.12300
H1649       H  0.94279384  0.78241969  0.18802943     0.12200
H1650       H  0.90516040  0.75398303  0.19236256     0.12000
H1651       H  0.86154076  0.74664516  0.20815819     0.12500
H1652       H  0.86600965  0.81460154  0.25217200     0.14500
C1653       C  0.98703067  0.94607369  0.07796086    -0.05600
C1654       C  0.99891839  0.92399623  0.06922643    -0.05500
C1655       C  0.00139728  0.90279994  0.08482387    -0.23700
C1656       C  0.99172787  0.90291658  0.10952005     0.18600
C1657       C  0.97909793  0.92461600  0.11858243     0.15800
C1658       C  0.97707565  0.94626727  0.10283770    -0.18700
C1659       C  0.96876453  0.92409938  0.14317159    -0.20500
C1660       C  0.97130010  0.90251459  0.15859771    -0.13100
C1661       C  0.98453222  0.88115048  0.14989776     0.03600
C1662       C  0.99453464  0.88156267  0.12520410    -0.25200
H1663       H  0.00680931  0.92320137  0.05027462     0.08700
H1664       H  0.01096464  0.88626673  0.07752675     0.12300
H1665       H  0.96757250  0.96300140  0.10976376     0.12200
H1666       H  0.95877943  0.94037506  0.15049191     0.12000
H1667       H  0.96332073  0.90268254  0.17753009     0.12500
H1668       H  0.00425687  0.86504443  0.11803870     0.14500
C1669       C  0.20350878  0.89319640  0.76211016    -0.05600
C1670       C  0.20492028  0.91231384  0.74359774    -0.05500
C1671       C  0.20322485  0.93764044  0.75059157    -0.23700
C1672       C  0.20077357  0.94415596  0.77625416     0.18600
C1673       C  0.20036123  0.92493879  0.79497457     0.15800
C1674       C  0.20130515  0.89965491  0.78777041    -0.18700
C1675       C  0.19903935  0.93126904  0.82063537    -0.20500
C1676       C  0.19735519  0.95642248  0.82772963    -0.13100
C1677       C  0.19583962  0.97582463  0.80929607     0.03600
C1678       C  0.19822523  0.96945690  0.78348576    -0.25200
H1679       H  0.20678760  0.90762793  0.72370188     0.08700
H1680       H  0.20379138  0.95209501  0.73596716     0.12300
H1681       H  0.20068850  0.88496151  0.80217211     0.12200
H1682       H  0.19924150  0.91676273  0.83524376     0.12000
H1683       H  0.19676060  0.96054931  0.84781931     0.12500
H1684       H  0.19705335  0.98390547  0.76890580     0.14500
C1685       C  0.19383132  0.16327362  0.77023263    -0.05600
C1686       C  0.16928266  0.15797723  0.77953255    -0.05500
C1687       C  0.16248958  0.13337970  0.78611117    -0.23700
C1688       C  0.18038165  0.11381232  0.78419502     0.18600
C1689       C  0.20504737  0.11878227  0.77469935     0.15800
C1690       C  0.21144040  0.14340074  0.76726475    -0.18700
C1691       C  0.22320327  0.09926781  0.77390206    -0.20500
C1692       C  0.21750170  0.07549716  0.78413149    -0.13100
C1693       C  0.19332410  0.07078164  0.79459165     0.03600
C1694       C  0.17441567  0.08966385  0.79301022    -0.25200
H1695       H  0.15534560  0.17288329  0.78183162     0.08700
H1696       H  0.14353229  0.12981290  0.79352408     0.12300
H1697       H  0.23050171  0.14724739  0.76025232     0.12200
H1698       H  0.24220773  0.10275749  0.76659150     0.12000
H1699       H  0.23236123  0.06130010  0.78501855     0.12500
H1700       H  0.15534839  0.08601641  0.80012839     0.14500
C1701       C  0.14728053  0.03211446  0.86602228    -0.05600
C1702       C  0.15330576  0.02498366  0.89099804    -0.05500
C1703       C  0.13497948  0.02712871  0.90996509    -0.23700
C1704       C  0.11039686  0.03600428  0.90391615     0.18600
C1705       C  0.10426927  0.04304949  0.87865452     0.15800
C1706       C  0.12288003  0.04126797  0.85989393    -0.18700
C1707       C  0.07954813  0.05135969  0.87251582    -0.20500
C1708       C  0.06085153  0.05233178  0.89123524    -0.13100
C1709       C  0.06673627  0.04522219  0.91635310     0.03600
C1710       C  0.09169030  0.03741349  0.92261016    -0.25200
H1711       H  0.17215938  0.01782349  0.89573484     0.08700
H1712       H  0.13989414  0.02156518  0.92923380     0.12300
H1713       H  0.11831423  0.04643238  0.84040503     0.12200
H1714       H  0.07459661  0.05676567  0.85321037     0.12000
H1715       H  0.04176197  0.05848970  0.88602535     0.12500
H1716       H  0.09641554  0.03163337  0.94187620     0.14500
C1717       C  0.91998482  0.84348900  0.78609033    -0.05600
C1718       C  0.91776115  0.81744228  0.78145246    -0.05500
C1719       C  0.89375504  0.80618096  0.77815905    -0.23700
C1720       C  0.87135572  0.82058974  0.77990009     0.18600
C1721       C  0.87330389  0.84669367  0.78475952     0.15800
C1722       C  0.89747039  0.85798119  0.78743217    -0.18700
C1723       C  0.85101414  0.86108924  0.78721940    -0.20500
C1724       C  0.82701741  0.84970126  0.78535644    -0.13100
C1725       C  0.82471550  0.82376308  0.78045787     0.03600
C1726       C  0.84705585  0.80933351  0.77732352    -0.25200
H1727       H  0.93458003  0.80557525  0.78079836     0.08700
H1728       H  0.89270883  0.78610511  0.77467582     0.12300
H1729       H  0.89866955  0.87810966  0.79054361     0.12200
H1730       H  0.85212363  0.88112452  0.79092894     0.12000
H1731       H  0.81013537  0.86131621  0.78752099     0.12500
H1732       H  0.84552662  0.78932322  0.77359080     0.14500
C1733       C  0.10283252  0.82669334  0.73406842    -0.05600
C1734       C  0.10066072  0.85305187  0.73468693    -0.05500
C1735       C  0.07778666  0.86446237  0.74201777    -0.23700
C1736       C  0.05693343  0.84963399  0.74956094     0.18600
C1737       C  0.05870878  0.82306819  0.74810911     0.15800
C1738       C  0.08153419  0.81176280  0.73995938    -0.18700
C1739       C  0.03814432  0.80822149  0.75619415    -0.20500
C1740       C  0.01632599  0.81947301  0.76627594    -0.13100
C1741       C  0.01440024  0.84586427  0.76828782     0.03600
C1742       C  0.03477957  0.86085496  0.75949586    -0.25200
H1743       H  0.11712090  0.86478236  0.73065072     0.08700
H1744       H  0.07683535  0.88483189  0.74297339     0.12300
H1745       H  0.08340576  0.79140486  0.74017313     0.12200
H1746       H  0.03921103  0.78784725  0.75539611     0.12000
H1747       H  0.00121221  0.80737008  0.77323732     0.12500
H1748       H  0.03356421  0.88120102  0.76069566     0.14500
C1749       C  0.97902941  0.95920029  0.91064242    -0.05600
C1750       C  0.97120081  0.93467022  0.91738642    -0.05500
C1751       C  0.96806588  0.91605301  0.89909901    -0.23700
C1752       C  0.97299267  0.92130306  0.87354006     0.18600
C1753       C  0.98112931  0.94571477  0.86623754     0.15800
C1754       C  0.98381733  0.96467149  0.88481312    -0.18700
C1755       C  0.98661902  0.95051045  0.84053739    -0.20500
C1756       C  0.98426222  0.93129133  0.82246540    -0.13100
C1757       C  0.97585071  0.90715183  0.82967931     0.03600
C1758       C  0.97008318  0.90237298  0.85524164    -0.25200
H1759       H  0.96711780  0.92981231  0.93695937     0.08700
H1760       H  0.96187106  0.89744284  0.90501717     0.12300
H1761       H  0.98992832  0.98341796  0.87924747     0.12200
H1762       H  0.99291570  0.96902859  0.83445357     0.12000
H1763       H  0.98868718  0.93531776  0.80277863     0.12500
H1764       H  0.96372759  0.88372231  0.86091440     0.14500
C1765       C  0.92772108  0.22819707  0.77846038    -0.05600
C1766       C  0.92430750  0.25304084  0.76960424    -0.05500
C1767       C  0.89981760  0.26218641  0.76353676    -0.23700
C1768       C  0.87821783  0.24666573  0.76618626     0.18600
C1769       C  0.88148935  0.22157165  0.77480882     0.15800
C1770       C  0.90608986  0.21251237  0.78070724    -0.18700
C1771       C  0.86004142  0.20602863  0.77785312    -0.20500
C1772       C  0.83549687  0.21546419  0.77322986    -0.13100
C1773       C  0.83185059  0.24046801  0.76498384     0.03600
C1774       C  0.85338411  0.25589343  0.76097244    -0.25200
H1775       H  0.94054250  0.26558336  0.76787992     0.08700
H1776       H  0.89774323  0.28151335  0.75708208     0.12300
H1777       H  0.90837768  0.19317435  0.78710509     0.12200
H1778       H  0.86219522  0.18672830  0.78439251     0.12000
H1779       H  0.81920215  0.20326137  0.77643044     0.12500
H1780       H  0.85073306  0.27529832  0.75494251     0.14500
C1781       C  0.02271847  0.21683399  0.76201019    -0.05600
C1782       C  0.03881530  0.19631008  0.75662793    -0.05500
C1783       C  0.06346765  0.20014108  0.74735982    -0.23700
C1784       C  0.07259599  0.22461879  0.74325066     0.18600
C1785       C  0.05598719  0.24538891  0.74655879     0.15800
C1786       C  0.03098637  0.24134979  0.75571896    -0.18700
C1787       C  0.06531622  0.26987961  0.74228673    -0.20500
C1788       C  0.09118435  0.27378025  0.73653283    -0.13100
C1789       C  0.10805543  0.25328326  0.73489622     0.03600
C1790       C  0.09848891  0.22870935  0.73751629    -0.25200
H1791       H  0.03269500  0.17722348  0.76076287     0.08700
H1792       H  0.07579435  0.18399032  0.74454651     0.12300
H1793       H  0.01876142  0.25731437  0.75973712     0.12200
H1794       H  0.05293167  0.28606173  0.74461468     0.12000
H1795       H  0.09836467  0.29287165  0.73495944     0.12500
H1796       H  0.11155726  0.21286808  0.73656897     0.14500
C1797       C  0.98154603  0.17374950  0.83533806    -0.05600
C1798       C  0.99023444  0.14924180  0.83049573    -0.05500
C1799       C  0.99207196  0.13150325  0.85006561    -0.23700
C1800       C  0.98544279  0.13803529  0.87491140     0.18600
C1801       C  0.97681435  0.16268073  0.88016476     0.15800
C1802       C  0.97475542  0.18043017  0.86023451    -0.18700
C1803       C  0.97033355  0.16897192  0.90520853    -0.20500
C1804       C  0.97206816  0.15090901  0.92474628    -0.13100
C1805       C  0.98023004  0.12624126  0.91953237     0.03600
C1806       C  0.98713339  0.12014353  0.89450080    -0.25200
H1807       H  0.99532329  0.14375320  0.81139537     0.08700
H1808       H  0.99862715  0.11264295  0.84574998     0.12300
H1809       H  0.96812843  0.19938497  0.86403397     0.12200
H1810       H  0.96371383  0.18777478  0.90963982     0.12000
H1811       H  0.96654045  0.15609526  0.94379879     0.12500
H1812       H  0.99374451  0.10130638  0.89011308     0.14500
C1813       C  0.77759339  0.98618124  0.78250639    -0.05600
C1814       C  0.79510743  0.97099007  0.76940958    -0.05500
C1815       C  0.78854481  0.94657383  0.76192503    -0.23700
C1816       C  0.76441336  0.93664177  0.76772087     0.18600
C1817       C  0.74636548  0.95192361  0.78034357     0.15800
C1818       C  0.75293727  0.97673239  0.78731712    -0.18700
C1819       C  0.72251432  0.94167881  0.78684783    -0.20500
C1820       C  0.71687278  0.91643794  0.78152114    -0.13100
C1821       C  0.73474057  0.90111246  0.76919767     0.03600
C1822       C  0.75842236  0.91137779  0.76209442    -0.25200
H1823       H  0.81423375  0.97783221  0.76561416     0.08700
H1824       H  0.80265918  0.93516705  0.75234363     0.12300
H1825       H  0.73947192  0.98810533  0.79782552     0.12200
H1826       H  0.70852293  0.95295568  0.79675047     0.12000
H1827       H  0.69877661  0.90862906  0.78765377     0.12500
H1828       H  0.77252617  0.89940013  0.75318634     0.14500
C1829       C  0.73819935  0.16728820  0.77645281    -0.05600
C1830       C  0.73999942  0.15299368  0.75411679    -0.05500
C1831       C  0.74729679  0.12762776  0.75508183    -0.23700
C1832       C  0.75254380  0.11586809  0.77846387     0.18600
C1833       C  0.74990871  0.12983288  0.80112836     0.15800
C1834       C  0.74300507  0.15547444  0.79998230    -0.18700
C1835       C  0.75477889  0.11805160  0.82454045    -0.20500
C1836       C  0.76329568  0.09311686  0.82545975    -0.13100
C1837       C  0.76727202  0.07937350  0.80302135     0.03600
C1838       C  0.76113934  0.09067825  0.77953636    -0.25200
H1839       H  0.73650800  0.16169010  0.73574130     0.08700
H1840       H  0.74916467  0.11730983  0.73749983     0.12300
H1841       H  0.74147914  0.16625052  0.81733545     0.12200
H1842       H  0.75261598  0.12830316  0.84213135     0.12000
H1843       H  0.76764000  0.08473915  0.84381505     0.12500
H1844       H  0.76430395  0.08036193  0.76213309     0.14500
C1845       C  0.83789651  0.02976734  0.84141087    -0.05600
C1846       C  0.86129850  0.01846157  0.83520686    -0.05500
C1847       C  0.88169353  0.01864011  0.85255688    -0.23700
C1848       C  0.87885005  0.02993459  0.87641451     0.18600
C1849       C  0.85512323  0.04081962  0.88293564     0.15800
C1850       C  0.83490025  0.04066951  0.86544241    -0.18700
C1851       C  0.85195263  0.05171696  0.90685490    -0.20500
C1852       C  0.87209715  0.05174902  0.92430386    -0.13100
C1853       C  0.89584550  0.04115927  0.91803514     0.03600
C1854       C  0.89919336  0.03041202  0.89394020    -0.25200
H1855       H  0.86394852  0.00998926  0.81675124     0.08700
H1856       H  0.89969041  0.01007214  0.84728711     0.12300
H1857       H  0.81671233  0.04900095  0.87054289     0.12200
H1858       H  0.83386388  0.06011703  0.91211125     0.12000
H1859       H  0.86914228  0.06021337  0.94272509     0.12500
H1860       H  0.91737623  0.02194459  0.88907809     0.14500
C1861       C  0.18610743  0.82714801  0.04040096    -0.05600
C1862       C  0.16600650  0.82200476  0.05733537    -0.05500
C1863       C  0.17093639  0.81574953  0.08266106    -0.23700
C1864       C  0.19613095  0.81408080  0.09159531     0.18600
C1865       C  0.21662522  0.81757120  0.07450648     0.15800
C1866       C  0.21150843  0.82414808  0.04897453    -0.18700
C1867       C  0.24183029  0.81489496  0.08344583    -0.20500
C1868       C  0.24662910  0.80930245  0.10907714    -0.13100
C1869       C  0.22635421  0.80683194  0.12634519     0.03600
C1870       C  0.20110628  0.80911315  0.11738500    -0.25200
H1871       H  0.14628071  0.82337884  0.05107663     0.08700
H1872       H  0.15499935  0.81259048  0.09535205     0.12300
H1873       H  0.22720281  0.82789655  0.03614320     0.12200
H1874       H  0.25782255  0.81721511  0.07065682     0.12000
H1875       H  0.26625160  0.80733254  0.11551243     0.12500
H1876       H  0.18531120  0.80666771  0.13042721     0.14500
C1877       C  0.19811383  0.82957168  0.94471123    -0.05600
C1878       C  0.20281845  0.80376478  0.94103805    -0.05500
C1879       C  0.21020510  0.79480919  0.91719440    -0.23700
C1880       C  0.21272858  0.81146323  0.89651077     0.18600
C1881       C  0.20914442  0.83757566  0.90030568     0.15800
C1882       C  0.20243467  0.84645622  0.92441568    -0.18700
C1883       C  0.21086601  0.85426136  0.87960360    -0.20500
C1884       C  0.21466189  0.84503847  0.85512584    -0.13100
C1885       C  0.21765979  0.81911183  0.85102819     0.03600
C1886       C  0.21744815  0.80241253  0.87188151    -0.25200
H1887       H  0.19951796  0.79032804  0.95623805     0.08700
H1888       H  0.21285628  0.77473260  0.91467363     0.12300
H1889       H  0.19934683  0.86646801  0.92707457     0.12200
H1890       H  0.20814950  0.87432967  0.88216898     0.12000
H1891       H  0.21468202  0.85810590  0.83923135     0.12500
H1892       H  0.21931404  0.78233167  0.86869580     0.14500
C1893       C  0.13210146  0.88354344  0.98601214    -0.05600
C1894       C  0.11227651  0.88049083  0.96812231    -0.05500
C1895       C  0.09214580  0.89786014  0.96664980    -0.23700
C1896       C  0.09168732  0.91878285  0.98281121     0.18600
C1897       C  0.11196160  0.92234393  0.00034889     0.15800
C1898       C  0.13180364  0.90459639  0.00203564    -0.18700
C1899       C  0.11213681  0.94367185  0.01587610    -0.20500
C1900       C  0.09232202  0.96124942  0.01423446    -0.13100
C1901       C  0.07163386  0.95755223  0.99749986     0.03600
C1902       C  0.07139367  0.93622447  0.98177779    -0.25200
H1903       H  0.11210566  0.86436835  0.95561628     0.08700
H1904       H  0.07693125  0.89490563  0.95291896     0.12300
H1905       H  0.14723876  0.90732278  0.01559849     0.12200
H1906       H  0.12761726  0.94678295  0.02927995     0.12000
H1907       H  0.09286728  0.97754827  0.02651374     0.12500
H1908       H  0.05566607  0.93344241  0.96856910     0.14500
C1909       C  0.75164998  0.25367064  0.15021694    -0.05600
C1910       C  0.77640488  0.25613603  0.14013334    -0.05500
C1911       C  0.78145868  0.25023344  0.11491787    -0.23700
C1912       C  0.76196313  0.24133268  0.09905719     0.18600
C1913       C  0.73672316  0.23939587  0.10834396     0.15800
C1914       C  0.73158158  0.24591536  0.13391410    -0.18700
C1915       C  0.71748024  0.23009212  0.09206170    -0.20500
C1916       C  0.72350728  0.22172365  0.06745520    -0.13100
C1917       C  0.74884955  0.22262632  0.05866847     0.03600
C1918       C  0.76771331  0.23332137  0.07438960    -0.25200
H1919       H  0.79216337  0.26240767  0.15195180     0.08700
H1920       H  0.80087308  0.25195024  0.10802637     0.12300
H1921       H  0.71241131  0.24388575  0.14135146     0.12200
H1922       H  0.69796058  0.22847867  0.09864858     0.12000
H1923       H  0.70862266  0.21350720  0.05575769     0.12500
H1924       H  0.78727045  0.23440434  0.06772340     0.14500
C1925       C  0.74227988  0.20860895  0.96274778    -0.05600
C1926       C  0.74211836  0.18945634  0.94429159    -0.05500
C1927       C  0.73494700  0.19449482  0.91914288    -0.23700
C1928       C  0.72726077  0.21874638  0.91175719     0.18600
C1929       C  0.72550277  0.23784957  0.93025207     0.15800
C1930       C  0.73303494  0.23269839  0.95564124    -0.18700
C1931       C  0.71715320  0.26198468  0.92273125    -0.20500
C1932       C  0.71161734  0.26732563  0.89709149    -0.13100
C1933       C  0.71464699  0.24875193  0.87842735     0.03600
C1934       C  0.72210464  0.22435665  0.88603782    -0.25200
H1935       H  0.74812818  0.17049321  0.94915082     0.08700
H1936       H  0.73593537  0.17948040  0.90532949     0.12300
H1937       H  0.73286768  0.24773588  0.96945026     0.12200
H1938       H  0.71554563  0.27691367  0.93656667     0.12000
H1939       H  0.70621787  0.28633310  0.89166349     0.12500
H1940       H  0.72452655  0.20989665  0.87179260     0.14500
C1941       C  0.89487424  0.11928551  0.00976257    -0.05600
C1942       C  0.89937300  0.14485309  0.00406057    -0.05500
C1943       C  0.87934844  0.16239628  0.00410579    -0.23700
C1944       C  0.85438721  0.15484738  0.01012578     0.18600
C1945       C  0.84974266  0.12943103  0.01690982     0.15800
C1946       C  0.86992437  0.11184284  0.01658919    -0.18700
C1947       C  0.82488130  0.12196764  0.02352324    -0.20500
C1948       C  0.80473897  0.13935179  0.02285308    -0.13100
C1949       C  0.80902130  0.16440456  0.01535619     0.03600
C1950       C  0.83394142  0.17216165  0.00920774    -0.25200
H1951       H  0.91831001  0.15123276  0.99885324     0.08700
H1952       H  0.88334500  0.18183251  0.99909588     0.12300
H1953       H  0.86611271  0.09231380  0.02141489     0.12200
H1954       H  0.82096567  0.10263244  0.02898463     0.12000
H1955       H  0.78565487  0.13317068  0.02780053     0.12500
H1956       H  0.83731480  0.19157641  0.00362168     0.14500
C1957       C  0.78444491  0.82629862  0.05544891    -0.05600
C1958       C  0.76104521  0.81385702  0.05921283    -0.05500
C1959       C  0.75336016  0.80682041  0.08367349    -0.23700
C1960       C  0.76888470  0.81225402  0.10479799     0.18600
C1961       C  0.79258192  0.82446336  0.10116941     0.15800
C1962       C  0.80034645  0.83103605  0.07657863    -0.18700
C1963       C  0.80796105  0.83031204  0.12222894    -0.20500
C1964       C  0.79989548  0.82424299  0.14675316    -0.13100
C1965       C  0.77644472  0.81191017  0.15067703     0.03600
C1966       C  0.76104536  0.80590095  0.12948768    -0.25200
H1967       H  0.74835893  0.81021143  0.04331738     0.08700
H1968       H  0.73507992  0.79753108  0.08611064     0.12300
H1969       H  0.81868764  0.84017049  0.07393097     0.12200
H1970       H  0.82616355  0.83974409  0.11975005     0.12000
H1971       H  0.81219177  0.82898416  0.16265177     0.12500
H1972       H  0.74283775  0.79652175  0.13218378     0.14500
C1973       C  0.79295639  0.81554397  0.96016199    -0.05600
C1974       C  0.81171788  0.81750178  0.94115432    -0.05500
C1975       C  0.80705463  0.80863694  0.91671919    -0.23700
C1976       C  0.78376212  0.79704853  0.91090804     0.18600
C1977       C  0.76584115  0.79244941  0.93042214     0.15800
C1978       C  0.77052505  0.80176769  0.95500914    -0.18700
C1979       C  0.74291294  0.77996140  0.92455292    -0.20500
C1980       C  0.73701558  0.77387420  0.89934098    -0.13100
C1981       C  0.75377043  0.78054872  0.87966343     0.03600
C1982       C  0.77754330  0.79126166  0.88567065    -0.25200
H1983       H  0.82967813  0.82699009  0.94486780     0.08700
H1984       H  0.82128332  0.81171648  0.90214426     0.12300
H1985       H  0.75600573  0.79981623  0.96948715     0.12200
H1986       H  0.72907393  0.77591106  0.93925502     0.12000
H1987       H  0.71859167  0.76555006  0.89502532     0.12500
H1988       H  0.79065365  0.79619093  0.87054205     0.14500
C1989       C  0.82667279  0.89210511  0.00238633    -0.05600
C1990       C  0.81946381  0.91437193  0.01471826    -0.05500
C1991       C  0.83552953  0.93547549  0.01425402    -0.23700
C1992       C  0.85925939  0.93433377  0.00196148     0.18600
C1993       C  0.86642764  0.91197989  0.98939616     0.15800
C1994       C  0.84999278  0.89124151  0.98941103    -0.18700
C1995       C  0.89033443  0.91032290  0.97774841    -0.20500
C1996       C  0.90744627  0.93035058  0.97920161    -0.13100
C1997       C  0.90079535  0.95257558  0.99193112     0.03600
C1998       C  0.87636283  0.95472224  0.00276903    -0.25200
H1999       H  0.80150203  0.91535057  0.02479618     0.08700
H2000       H  0.82971025  0.95242206  0.02402680     0.12300
H2001       H  0.85587399  0.87394996  0.98025300     0.12200
H2002       H  0.89604984  0.89330190  0.96803570     0.12000
H2003       H  0.92602605  0.92838224  0.97044484     0.12500
H2004       H  0.87110882  0.97175942  0.01272325     0.14500
loop_ 
_geom_bond_atom_site_label_1 
_geom_bond_atom_site_label_2 
_geom_bond_distance 
_geom_bond_site_symmetry_2 
_ccdc_geom_bond_type 
C1            C2   1.407       .  A
C1            C6   1.413       .  A
C1         C1957   1.486       .  S
C2            C3   1.397       .  A
C2            H7   1.083       .  S
C3            C4   1.396   1_554  A
C3         C1989   1.478       .  S
C4            C5   1.405       .  A
C4            H8   1.083       .  S
C5            C6   1.410   1_556  A
C5         C1973   1.490       .  S
C6            H9   1.083       .  S
C10          C11   1.416       .  A
C10          C15   1.408       .  A
C10        C1917   1.495       .  S
C11          C12   1.419   1_554  A
C11          H16   1.083       .  S
C12          C13   1.414       .  A
C12        C1925   1.505       .  S
C13          C14   1.400   1_556  A
C13          H17   1.083       .  S
C14          C15   1.397       .  A
C14        C1949   1.482       .  S
C15          H18   1.084       .  S
C19          C20   1.406       .  A
C19          C24   1.411   1_554  A
C19        C1861   1.491       .  S
C20          C21   1.399   1_554  A
C20          H25   1.084       .  S
C21          C22   1.399       .  A
C21        C1893   1.484       .  S
C22          C23   1.408       .  A
C22          H26   1.083       .  S
C23          C24   1.413       .  A
C23        C1877   1.491       .  S
C24          H27   1.083       .  S
C28          C29   1.401       .  A
C28          C33   1.413       .  A
C28        C1837   1.489       .  S
C29          C30   1.397       .  A
C29          H34   1.084       .  S
C30          C31   1.399       .  A
C30        C1845   1.479       .  S
C31          C32   1.407       .  A
C31          H35   1.084   1_545  S
C32          C33   1.416       .  A
C32        C1813   1.489   1_545  S
C33          H36   1.083       .  S
C37          C38   1.416       .  A
C37          C42   1.409       .  A
C37        C1765   1.494       .  S
C38          C39   1.411       .  A
C38          H43   1.083       .  S
C39          C40   1.405   1_655  A
C39        C1781   1.491   1_655  S
C40          C41   1.399   1_455  A
C40          H44   1.084       .  S
C41          C42   1.399       .  A
C41        C1797   1.479       .  S
C42          H45   1.084       .  S
C46          C47   1.408       .  A
C46          C51   1.407       .  A
C46        C1717   1.497       .  S
C47          C48   1.404       .  A
C47          H52   1.083       .  S
C48          C49   1.405       .  A
C48        C1757   1.484       .  S
C49          C50   1.410       .  A
C49          H53   1.083   1_655  S
C50          C51   1.408       .  A
C50        C1741   1.493   1_655  S
C51          H54   1.082       .  S
C55          C56   1.412       .  A
C55          C60   1.401       .  A
C55        C1693   1.485       .  S
C56          C57   1.417       .  A
C56          H61   1.082       .  S
C57          C58   1.406       .  A
C57        C1677   1.492   1_545  S
C58          C59   1.389       .  A
C58          H62   1.083   1_545  S
C59          C60   1.387       .  A
C59        C1701   1.460       .  S
C60          H63   1.084       .  S
C64          C65   1.408       .  A
C64          C69   1.405       .  A
C64        C1637   1.481       .  S
C65          C66   1.413   1_655  A
C65          H70   1.083       .  S
C66          C67   1.414       .  A
C66        C1621   1.504       .  S
C67          C68   1.407   1_455  A
C67          H71   1.082       .  S
C68          C69   1.400       .  A
C68        C1661   1.493       .  S
C69          H72   1.084       .  S
C73          C74   1.407       .  A
C73          C78   1.413       .  A
C73        C1597   1.491       .  S
C74          C75   1.397       .  A
C74          H79   1.083       .  S
C75          C76   1.394       .  A
C75        C1613   1.471       .  S
C76          C77   1.403       .  A
C76          H80   1.084   1_545  S
C77          C78   1.410       .  A
C77        C1581   1.485   1_545  S
C78          H81   1.083       .  S
C82          C83   1.414       .  A
C82          C87   1.408       .  A
C82        C1549   1.495       .  S
C83          C84   1.412   1_655  A
C83          H88   1.083       .  S
C84          C85   1.407       .  A
C84        C1557   1.488       .  S
C85          C86   1.396   1_455  A
C85          H89   1.084       .  S
C86          C87   1.399       .  A
C86        C1533   1.481       .  S
C87          H90   1.083       .  S
Zr91         O92   2.440       .  S
Zr91         O93   2.427       .  S
Zr91         O94   2.409       .  S
Zr91         O97   2.414       .  S
Zr91         O99   2.375       .  S
Zr91        O100   2.375       .  S
Zr91        O101   2.400       .  S
Zr91        O102   2.392       .  S
O92         H148   0.990       .  S
O92         H156   0.990       .  S
O93         C113   1.284       .  A
O94         C115   1.279       .  A
O95        Zr105   2.426       .  S
O95         C114   1.283       .  A
O96        Zr104   2.450       .  S
O96         C115   1.286       .  A
O97         C114   1.283       .  A
O98        Zr106   2.431       .  S
O98         C113   1.283       .  A
O99        Zr104   2.392       .  S
O99        Zr106   2.374       .  S
O100       Zr105   2.393       .  S
O100       Zr106   2.378       .  S
O100        H135   0.965       .  S
O101       Zr104   2.401       .  S
O101       Zr121   2.398       .  S
O101        H138   0.966       .  S
O102       Zr105   2.391       .  S
O102       Zr121   2.383       .  S
Zr103       O128   2.440       .  S
Zr103       O122   2.444       .  S
Zr103       O130   2.431       .  S
Zr103       O118   2.415       .  S
Zr103       O109   2.396       .  S
Zr103       O110   2.407       .  S
Zr103       O111   2.374       .  S
Zr103       O112   2.376       .  S
Zr104       O123   2.436       .  S
Zr104       O116   2.436       .  S
Zr104       O117   2.446       .  S
Zr104       O110   2.403       .  S
Zr104       O111   2.392       .  S
Zr105       O107   2.435       .  S
Zr105       O129   2.435       .  S
Zr105       O131   2.436       .  S
Zr105       O109   2.387       .  S
Zr105       O112   2.391       .  S
Zr106       O132   2.438       .  S
Zr106       O133   2.435       .  S
Zr106       O108   2.435       .  S
Zr106       O109   2.393       .  S
Zr106       O110   2.409       .  S
O107        H144   0.990       .  S
O108        H139   0.990       .  S
O108        H153   0.990       .  S
O110        H136   0.966       .  S
O111       Zr121   2.376       .  S
O112       Zr121   2.385       .  S
O112        H137   0.966       .  S
C113       C1485   1.479       .  S
C114       C1445   1.466       .  S
C115       C1469   1.465       .  S
O116        H152   0.990       .  S
O117        C119   1.286       .  A
O118        C119   1.280       .  A
C119       C1501   1.470       .  S
O120       Zr121   2.439       .  S
O120        H149   0.990       .  S
Zr121       O124   2.436       .  S
Zr121       O125   2.438       .  S
Zr121       O126   2.414       .  S
O122        C127   1.286       .  A
O123        H140   0.990       .  S
O123        H155   0.990       .  S
O124        H141   0.990       .  S
O125        H145   0.990       .  S
O125        H154   0.990       .  S
O126        C127   1.280       .  A
C127       C1517   1.469       .  S
O128        H147   0.991       .  S
O128        H151   0.990       .  S
O129        H143   0.990       .  S
O129        H150   0.990       .  S
O130        C134   1.286       .  A
O131        C134   1.285       .  A
O132        H142   0.990       .  S
O133        H146   0.990       .  S
C134       C1565   1.478       .  S
C157        C158   1.404       .  A
C157        C162   1.410       .  A
C157       C1509   1.481       .  S
C158        C159   1.397       .  A
C158        H163   1.084       .  S
C159        C160   1.396       .  A
C159       C1413   1.474       .  S
C160        C161   1.405       .  A
C160        H164   1.084   1_545  S
C161        C162   1.408       .  A
C161       C1429   1.483   1_545  S
C162        H165   1.083       .  S
Zr166       O167   2.442       .  S
Zr166       O168   2.417       .  S
Zr166       O169   2.426       .  S
Zr166       O172   2.403       .  S
Zr166       O174   2.373       .  S
Zr166       O175   2.383       .  S
Zr166       O176   2.399       .  S
Zr166       O177   2.392       .  S
O167        H223   0.991       .  S
O167        H231   0.990       .  S
O168        C188   1.281       .  A
O169        C190   1.282       .  A
O170       Zr180   2.461       .  S
O170        C189   1.288       .  A
O171       Zr179   2.458       .  S
O171        C190   1.287       .  A
O172        C189   1.280       .  A
O173       Zr181   2.427       .  S
O173        C188   1.282       .  A
O174       Zr179   2.395       .  S
O174       Zr181   2.379       .  S
O175       Zr180   2.391       .  S
O175       Zr181   2.379       .  S
O175        H210   0.965       .  S
O176       Zr179   2.396       .  S
O176       Zr196   2.399       .  S
O176        H213   0.967       .  S
O177       Zr180   2.397       .  S
O177       Zr196   2.390       .  S
Zr178       O203   2.444       .  S
Zr178       O197   2.442       .  S
Zr178       O205   2.441       .  S
Zr178       O193   2.428       .  S
Zr178       O184   2.398       .  S
Zr178       O185   2.411       .  S
Zr178       O186   2.382       .  S
Zr178       O187   2.379       .  S
Zr179       O198   2.436       .  S
Zr179       O191   2.435       .  S
Zr179       O192   2.440       .  S
Zr179       O185   2.407       .  S
Zr179       O186   2.401       .  S
Zr180       O182   2.434       .  S
Zr180       O204   2.440       .  S
Zr180       O206   2.448       .  S
Zr180       O184   2.400       .  S
Zr180       O187   2.402       .  S
Zr181       O207   2.436       .  S
Zr181       O208   2.435       .  S
Zr181       O183   2.437       .  S
Zr181       O184   2.393       .  S
Zr181       O185   2.394       .  S
O182        H219   0.990       .  S
O183        H214   0.990       .  S
O183        H228   0.990       .  S
O185        H211   0.966       .  S
O186       Zr196   2.377       .  S
O187       Zr196   2.388       .  S
O187        H212   0.967       .  S
C188       C1365   1.467       .  S
C189       C1381   1.476       .  S
C190       C1397   1.480       .  S
O191        H227   0.990       .  S
O192        C194   1.286       .  A
O193        C194   1.285       .  A
C194       C1437   1.480       .  S
O195       Zr196   2.438       .  S
O195        H224   0.990       .  S
Zr196       O199   2.436       .  S
Zr196       O200   2.440       .  S
Zr196       O201   2.417       .  S
O197        C202   1.285       .  A
O198        H215   0.990       .  S
O198        H230   0.990       .  S
O199        H216   0.990       .  S
O200        H220   0.990       .  S
O200        H229   0.990       .  S
O201        C202   1.280       .  A
C202       C1869   1.480       .  S
O203        H222   0.991       .  S
O203        H226   0.991       .  S
O204        H218   0.990       .  S
O204        H225   0.990       .  S
O205        C209   1.284       .  A
O206        C209   1.287       .  A
O207        H217   0.990       .  S
O208        H221   0.990       .  S
C209       C1629   1.484       .  S
Zr232       O233   2.439       .  S
Zr232       O234   2.433       .  S
Zr232       O235   2.423       .  S
Zr232       O238   2.425       .  S
Zr232       O240   2.377       .  S
Zr232       O241   2.376       .  S
Zr232       O242   2.403       .  S
Zr232       O243   2.397       .  S
O233        H289   0.990       .  S
O233        H297   0.990       .  S
O234        C254   1.285       .  A
O235        C256   1.283       .  A
O236       Zr246   2.467       .  S
O236        C255   1.290       .  A
O237       Zr245   2.452       .  S
O237        C256   1.288       .  A
O238        C255   1.285       .  A
O239       Zr247   2.433       .  S
O239        C254   1.283       .  A
O240       Zr245   2.401       .  S
O240       Zr247   2.377       .  S
O241       Zr246   2.393       .  S
O241       Zr247   2.379       .  S
O241        H276   0.966       .  S
O242       Zr245   2.406       .  S
O242       Zr262   2.395       .  S
O242        H279   0.966       .  S
O243       Zr246   2.398       .  S
O243       Zr262   2.397       .  S
Zr244       O269   2.445       .  S
Zr244       O263   2.432       .  S
Zr244       O271   2.405       .  S
Zr244       O259   2.403       .  S
Zr244       O250   2.399       .  S
Zr244       O251   2.398       .  S
Zr244       O252   2.370       .  S
Zr244       O253   2.376       .  S
Zr245       O264   2.436       .  S
Zr245       O257   2.435       .  S
Zr245       O258   2.469       .  S
Zr245       O251   2.398       .  S
Zr245       O252   2.390       .  S
Zr246       O248   2.435       .  S
Zr246       O270   2.436       .  S
Zr246       O272   2.462       .  S
Zr246       O250   2.398       .  S
Zr246       O253   2.398       .  S
Zr247       O273   2.436       .  S
Zr247       O274   2.435       .  S
Zr247       O249   2.437       .  S
Zr247       O250   2.402       .  S
Zr247       O251   2.398       .  S
O248        H285   0.990       .  S
O249        H280   0.990       .  S
O249        H294   0.990       .  S
O251        H277   0.966       .  S
O252       Zr262   2.374       .  S
O253       Zr262   2.374       .  S
O253        H278   0.966       .  S
C254       C1589   1.482       .  S
C255       C1909   1.494       .  S
C256       C1541   1.477       .  S
O257        H293   0.990       .  S
O258        C260   1.290       .  A
O259        C260   1.280       .  A
C260       C1325   1.485       .  S
O261       Zr262   2.437       .  S
O261        H290   0.990       .  S
Zr262       O265   2.436       .  S
Zr262       O266   2.441       .  S
Zr262       O267   2.429       .  S
O263        C268   1.285       .  A
O264        H281   0.990       .  S
O264        H296   0.990       .  S
O265        H282   0.990       .  S
O266        H286   0.990       .  S
O266        H295   0.990       .  S
O267        C268   1.283       .  A
C268       C1341   1.484       .  S
O269        H288   0.990       .  S
O269        H292   0.990       .  S
O270        H284   0.990       .  S
O270        H291   0.990       .  S
O271        C275   1.280       .  A
O272        C275   1.289       .  A
O273        H283   0.990       .  S
O274        H287   0.990       .  S
C275       C1357   1.469       .  S
Zr298       O299   2.439       .  S
Zr298       O300   2.421       .  S
Zr298       O301   2.433       .  S
Zr298       O304   2.439       .  S
Zr298       O306   2.380       .  S
Zr298       O307   2.378       .  S
Zr298       O308   2.405       .  S
Zr298       O309   2.395       .  S
O299        H355   0.990       .  S
O299        H363   0.990       .  S
O300        C320   1.284       .  A
O301        C322   1.285       .  A
O302       Zr312   2.438       .  S
O302        C321   1.285       .  A
O303       Zr311   2.433       .  S
O303        C322   1.285       .  A
O304        C321   1.287       .  A
O305       Zr313   2.430       .  S
O305        C320   1.283       .  A
O306       Zr311   2.395       .  S
O306       Zr313   2.372       .  S
O307       Zr312   2.386       .  S
O307       Zr313   2.379       .  S
O307        H342   0.965       .  S
O308       Zr311   2.402       .  S
O308       Zr328   2.390       .  S
O308        H345   0.966       .  S
O309       Zr312   2.389       .  S
O309       Zr328   2.391       .  S
Zr310       O335   2.440       .  S
Zr310       O329   2.435       .  S
Zr310       O337   2.416       .  S
Zr310       O325   2.416       .  S
Zr310       O316   2.397       .  S
Zr310       O317   2.403       .  S
Zr310       O318   2.376       .  S
Zr310       O319   2.379       .  S
Zr311       O330   2.437       .  S
Zr311       O323   2.434       .  S
Zr311       O324   2.454       .  S
Zr311       O317   2.396       .  S
Zr311       O318   2.387       .  S
Zr312       O314   2.435       .  S
Zr312       O336   2.436       .  S
Zr312       O338   2.439       .  S
Zr312       O316   2.393       .  S
Zr312       O319   2.386       .  S
Zr313       O339   2.435       .  S
Zr313       O340   2.437       .  S
Zr313       O315   2.439       .  S
Zr313       O316   2.398       .  S
Zr313       O317   2.399       .  S
O314        H351   0.990       .  S
O315        H346   0.990       .  S
O315        H360   0.990       .  S
O317        H343   0.966       .  S
O318       Zr328   2.376       .  S
O319       Zr328   2.378       .  S
O319        H344   0.967       .  S
C320       C1277   1.479       .  S
C321       C1285   1.479       .  S
C322       C1309   1.473       .  S
O323        H359   0.990       .  S
O324        C326   1.288       .  A
O325        C326   1.281       .  A
C326       C1645   1.477       .  S
O327       Zr328   2.439       .  S
O327        H356   0.990       .  S
Zr328       O331   2.437       .  S
Zr328       O332   2.439       .  S
Zr328       O333   2.420       .  S
O329        C334   1.286       .  A
O330        H347   0.990       .  S
O330        H362   0.990       .  S
O331        H348   0.990       .  S
O332        H352   0.990       .  S
O332        H361   0.990       .  S
O333        C334   1.282       .  A
C334       C1965   1.482       .  S
O335        H354   0.990       .  S
O335        H358   0.990       .  S
O336        H350   0.990       .  S
O336        H357   0.990       .  S
O337        C341   1.282       .  A
O338        C341   1.285       .  A
O339        H349   0.990       .  S
O340        H353   0.990       .  S
C341       C1573   1.464       .  S
C364        C365   1.407       .  A
C364        C369   1.406       .  A
C364       C1493   1.489       .  S
C365        C366   1.401       .  A
C365        H370   1.084       .  S
C366        C367   1.404   1_554  A
C366       C1245   1.482       .  S
C367        C368   1.410       .  A
C367        H371   1.083       .  S
C368        C369   1.407   1_556  A
C368       C1261   1.492       .  S
C369        H372   1.083       .  S
Zr373       O374   2.441       .  S
Zr373       O375   2.438       .  S
Zr373       O376   2.430       .  S
Zr373       O379   2.414       .  S
Zr373       O381   2.374       .  S
Zr373       O382   2.380       .  S
Zr373       O383   2.406       .  S
Zr373       O384   2.403       .  S
O374        H430   0.991       .  S
O374        H438   0.990       .  S
O375        C395   1.284       .  A
O376        C397   1.281       .  A
O377       Zr387   2.456       .  S
O377        C396   1.289       .  A
O378       Zr386   2.451       .  S
O378        C397   1.286       .  A
O379        C396   1.282       .  A
O380       Zr388   2.403       .  S
O380        C395   1.278       .  A
O381       Zr386   2.404       .  S
O381       Zr388   2.387       .  S
O382       Zr387   2.401       .  S
O382       Zr388   2.377       .  S
O382        H417   0.966       .  S
O383       Zr386   2.405       .  S
O383       Zr403   2.402       .  S
O383        H420   0.966       .  S
O384       Zr387   2.401       .  S
O384       Zr403   2.396       .  S
Zr385       O410   2.446       .  S
Zr385       O404   2.421       .  S
Zr385       O412   2.427       .  S
Zr385       O400   2.420       .  S
Zr385       O391   2.394       .  S
Zr385       O392   2.398       .  S
Zr385       O393   2.378       .  S
Zr385       O394   2.378       .  S
Zr386       O405   2.436       .  S
Zr386       O398   2.434       .  S
Zr386       O399   2.452       .  S
Zr386       O392   2.405       .  S
Zr386       O393   2.393       .  S
Zr387       O389   2.435       .  S
Zr387       O411   2.436       .  S
Zr387       O413   2.465       .  S
Zr387       O391   2.396       .  S
Zr387       O394   2.395       .  S
Zr388       O414   2.436       .  S
Zr388       O415   2.435       .  S
Zr388       O390   2.437       .  S
Zr388       O391   2.392       .  S
Zr388       O392   2.386       .  S
O389        H426   0.990       .  S
O390        H421   0.990       .  S
O390        H435   0.990       .  S
O392        H418   0.966       .  S
O393       Zr403   2.376       .  S
O394       Zr403   2.373       .  S
O394        H419   0.966       .  S
C395       C1685   1.478       .  S
C396       C1253   1.488       .  S
C397       C1789   1.475       .  S
O398        H434   0.990       .  S
O399        C401   1.288       .  A
O400        C401   1.284       .  A
C401       C1197   1.480       .  S
O402       Zr403   2.438       .  S
O402        H431   0.991       .  S
Zr403       O406   2.437       .  S
Zr403       O407   2.439       .  S
Zr403       O408   2.434       .  S
O404        C409   1.284       .  A
O405        H422   0.990       .  S
O405        H437   0.990       .  S
O406        H423   0.990       .  S
O407        H427   0.990       .  S
O407        H436   0.990       .  S
O408        C409   1.284       .  A
C409       C1205   1.480       .  S
O410        H429   0.990       .  S
O410        H433   0.990       .  S
O411        H425   0.990       .  S
O411        H432   0.990       .  S
O412        C416   1.284       .  A
O413        C416   1.290       .  A
O414        H424   0.990       .  S
O415        H428   0.990       .  S
C416       C1221   1.481       .  S
Zr439       O440   2.437       .  S
Zr439       O441   2.420       .  S
Zr439       O442   2.425       .  S
Zr439       O445   2.404       .  S
Zr439       O447   2.371       .  S
Zr439       O448   2.379       .  S
Zr439       O449   2.393       .  S
Zr439       O450   2.404       .  S
O440        H496   0.990       .  S
O440        H504   0.990       .  S
O441        C461   1.283       .  A
O442        C463   1.283       .  A
O443       Zr453   2.461       .  S
O443        C462   1.289       .  A
O444       Zr452   2.449       .  S
O444        C463   1.287       .  A
O445        C462   1.280       .  A
O446       Zr454   2.421       .  S
O446        C461   1.281       .  A
O447       Zr452   2.387       .  S
O447       Zr454   2.378       .  S
O448       Zr453   2.393       .  S
O448       Zr454   2.375       .  S
O448        H483   0.966       .  S
O449       Zr452   2.392       .  S
O449       Zr469   2.397       .  S
O449        H486   0.966       .  S
O450       Zr453   2.395       .  S
O450       Zr469   2.406       .  S
Zr451       O476   2.442       .  S
Zr451       O470   2.416       .  S
Zr451       O478   2.402       .  S
Zr451       O466   2.426       .  S
Zr451       O457   2.392       .  S
Zr451       O458   2.399       .  S
Zr451       O459   2.371       .  S
Zr451       O460   2.380       .  S
Zr452       O471   2.435       .  S
Zr452       O464   2.435       .  S
Zr452       O465   2.428       .  S
Zr452       O458   2.405       .  S
Zr452       O459   2.399       .  S
Zr453       O455   2.434       .  S
Zr453       O477   2.439       .  S
Zr453       O479   2.452       .  S
Zr453       O457   2.398       .  S
Zr453       O460   2.403       .  S
Zr454       O480   2.435       .  S
Zr454       O481   2.437       .  S
Zr454       O456   2.437       .  S
Zr454       O457   2.386       .  S
Zr454       O458   2.392       .  S
O455        H492   0.990       .  S
O456        H487   0.990       .  S
O456        H501   0.990       .  S
O458        H484   0.966       .  S
O459       Zr469   2.374       .  S
O460       Zr469   2.385       .  S
O460        H485   0.965       .  S
C461       C1669   1.470       .  S
C462       C1733   1.469       .  S
C463       C1885   1.474       .  S
O464        H500   0.990       .  S
O465        C467   1.282       .  A
O466        C467   1.282       .  A
C467       C1157   1.463       .  S
O468       Zr469   2.439       .  S
O468        H497   0.990       .  S
Zr469       O472   2.437       .  S
Zr469       O473   2.440       .  S
Zr469       O474   2.433       .  S
O470        C475   1.280       .  A
O471        H488   0.990       .  S
O471        H503   0.990       .  S
O472        H489   0.990       .  S
O473        H493   0.990       .  S
O473        H502   0.990       .  S
O474        C475   1.283       .  A
C475       C1181   1.477       .  S
O476        H495   0.990       .  S
O476        H499   0.990       .  S
O477        H491   0.990       .  S
O477        H498   0.990       .  S
O478        C482   1.280       .  A
O479        C482   1.287       .  A
O480        H490   0.990       .  S
O481        H494   0.990       .  S
C482       C1141   1.478       .  S
Zr505       O506   2.440       .  S
Zr505       O507   2.449       .  S
Zr505       O508   2.435       .  S
Zr505       O511   2.422       .  S
Zr505       O513   2.380       .  S
Zr505       O514   2.383       .  S
Zr505       O515   2.412       .  S
Zr505       O516   2.409       .  S
O506        H562   0.990       .  S
O506        H570   0.990       .  S
O507        C527   1.287       .  A
O508        C529   1.285       .  A
O509       Zr519   2.462       .  S
O509        C528   1.289       .  A
O510       Zr518   2.465       .  S
O510        C529   1.290       .  A
O511        C528   1.284       .  A
O512       Zr520   2.427       .  S
O512        C527   1.283       .  A
O513       Zr518   2.407       .  S
O513       Zr520   2.386       .  S
O514       Zr519   2.388       .  S
O514       Zr520   2.374       .  S
O514        H549   0.966       .  S
O515       Zr518   2.400       .  S
O515       Zr535   2.399       .  S
O515        H552   0.965       .  S
O516       Zr519   2.387       .  S
O516       Zr535   2.399       .  S
Zr517       O542   2.440       .  S
Zr517       O536   2.434       .  S
Zr517       O544   2.428       .  S
Zr517       O532   2.429       .  S
Zr517       O523   2.405       .  S
Zr517       O524   2.402       .  S
Zr517       O525   2.375       .  S
Zr517       O526   2.386       .  S
Zr518       O537   2.435       .  S
Zr518       O530   2.435       .  S
Zr518       O531   2.470       .  S
Zr518       O524   2.401       .  S
Zr518       O525   2.394       .  S
Zr519       O521   2.435       .  S
Zr519       O543   2.439       .  S
Zr519       O545   2.443       .  S
Zr519       O523   2.398       .  S
Zr519       O526   2.399       .  S
Zr520       O546   2.435       .  S
Zr520       O547   2.436       .  S
Zr520       O522   2.435       .  S
Zr520       O523   2.397       .  S
Zr520       O524   2.385       .  S
O521        H558   0.990       .  S
O522        H553   0.990       .  S
O522        H567   0.990       .  S
O524        H550   0.965       .  S
O525       Zr535   2.380       .  S
O526       Zr535   2.370       .  S
O526        H551   0.966       .  S
C527       C1829   1.484       .  S
C528       C1773   1.483       .  S
C529       C1933   1.487       .  S
O530        H566   0.990       .  S
O531        C533   1.292       .  A
O532        C533   1.286       .  A
C533       C1117   1.491       .  S
O534       Zr535   2.438       .  S
O534        H563   0.990       .  S
Zr535       O538   2.435       .  S
Zr535       O539   2.440       .  S
Zr535       O540   2.444       .  S
O536        C541   1.285       .  A
O537        H554   0.990       .  S
O537        H569   0.990       .  S
O538        H555   0.990       .  S
O539        H559   0.990       .  S
O539        H568   0.990       .  S
O540        C541   1.285       .  A
C541       C1125   1.486       .  S
O542        H561   0.990       .  S
O542        H565   0.990       .  S
O543        H557   0.990       .  S
O543        H564   0.990       .  S
O544        C548   1.284       .  A
O545        C548   1.286       .  A
O546        H556   0.990       .  S
O547        H560   0.990       .  S
C548       C1093   1.473       .  S
Zr571       O572   2.440       .  S
Zr571       O573   2.425       .  S
Zr571       O574   2.433       .  S
Zr571       O577   2.423       .  S
Zr571       O579   2.381       .  S
Zr571       O580   2.382       .  S
Zr571       O581   2.403       .  S
Zr571       O582   2.396       .  S
O572        H628   0.990       .  S
O572        H636   0.990       .  S
O573        C593   1.283       .  A
O574        C595   1.285       .  A
O575       Zr585   2.464       .  S
O575        C594   1.291       .  A
O576       Zr584   2.436       .  S
O576        C595   1.285       .  A
O577        C594   1.283       .  A
O578       Zr586   2.449       .  S
O578        C593   1.286       .  A
O579       Zr584   2.403       .  S
O579       Zr586   2.373       .  S
O580       Zr585   2.389       .  S
O580       Zr586   2.377       .  S
O580        H615   0.966       .  S
O581       Zr584   2.406       .  S
O581       Zr601   2.392       .  S
O581        H618   0.965       .  S
O582       Zr585   2.397       .  S
O582       Zr601   2.391       .  S
Zr583       O608   2.441       .  S
Zr583       O602   2.428       .  S
Zr583       O610   2.411       .  S
Zr583       O598   2.418       .  S
Zr583       O589   2.403       .  S
Zr583       O590   2.403       .  S
Zr583       O591   2.371       .  S
Zr583       O592   2.377       .  S
Zr584       O603   2.437       .  S
Zr584       O596   2.435       .  S
Zr584       O597   2.462       .  S
Zr584       O590   2.392       .  S
Zr584       O591   2.386       .  S
Zr585       O587   2.435       .  S
Zr585       O609   2.436       .  S
Zr585       O611   2.474       .  S
Zr585       O589   2.391       .  S
Zr585       O592   2.388       .  S
Zr586       O612   2.436       .  S
Zr586       O613   2.435       .  S
Zr586       O588   2.436       .  S
Zr586       O589   2.405       .  S
Zr586       O590   2.404       .  S
O587        H624   0.990       .  S
O588        H619   0.990       .  S
O588        H633   0.990       .  S
O590        H616   0.966       .  S
O591       Zr601   2.376       .  S
O592       Zr601   2.383       .  S
O592        H617   0.965       .  S
C593       C1725   1.484       .  S
C594       C1821   1.477       .  S
C595       C1981   1.474       .  S
O596        H632   0.990       .  S
O597        C599   1.289       .  A
O598        C599   1.282       .  A
C599       C1069   1.478       .  S
O600       Zr601   2.439       .  S
O600        H629   0.990       .  S
Zr601       O604   2.437       .  S
Zr601       O605   2.439       .  S
Zr601       O606   2.420       .  S
O602        C607   1.285       .  A
O603        H620   0.990       .  S
O603        H635   0.990       .  S
O604        H621   0.990       .  S
O605        H625   0.990       .  S
O605        H634   0.990       .  S
O606        C607   1.281       .  A
C607       C1077   1.475       .  S
O608        H627   0.990       .  S
O608        H631   0.990       .  S
O609        H623   0.990       .  S
O609        H630   0.990       .  S
O610        C614   1.281       .  A
O611        C614   1.292       .  A
O612        H622   0.990       .  S
O613        H626   0.990       .  S
C614       C1045   1.482       .  S
C637        C638   1.409       .  A
C637        C642   1.404       .  A
C637       C1085   1.488       .  S
C638        C639   1.410       .  A
C638        H643   1.082       .  S
C639        C640   1.410       .  A
C639       C1165   1.488       .  S
C640        C641   1.395       .  A
C640        H644   1.083       .  S
C641        C642   1.393       .  A
C641       C1029   1.471       .  S
C642        H645   1.083       .  S
C646        C647   1.408       .  A
C646        C651   1.407       .  A
C646       C1213   1.488       .  S
C647        C648   1.409       .  A
C647        H652   1.083       .  S
C648        C649   1.406       .  A
C648       C1173   1.486       .  S
C649        C650   1.399       .  A
C649        H653   1.084       .  S
C650        C651   1.397       .  A
C650       C1021   1.480       .  S
C651        H654   1.083       .  S
C655        C656   1.413       .  A
C655        C660   1.409       .  A
C655       C1109   1.494       .  S
C656        C657   1.414       .  A
C656        H661   1.083       .  S
C657        C658   1.413       .  A
C657       C1229   1.497       .  S
C658        C659   1.402       .  A
C658        H662   1.084       .  S
C659        C660   1.399       .  A
C659        C997   1.490       .  S
C660        H663   1.084       .  S
C664        C665   1.404       .  A
C664        C669   1.411       .  A
C664       C1133   1.490       .  S
C665        C666   1.397       .  A
C665        H670   1.084       .  S
C666        C667   1.401       .  A
C666        C989   1.476       .  S
C667        C668   1.410       .  A
C667        H671   1.084       .  S
C668        C669   1.412       .  A
C668       C1061   1.490       .  S
C669        H672   1.083       .  S
C673        C674   1.408       .  A
C673        C678   1.402       .  A
C673       C1349   1.483       .  S
C674        C675   1.408       .  A
C674        H679   1.084       .  S
C675        C676   1.407       .  A
C675        C965   1.489       .  S
C676        C677   1.406       .  A
C676        H680   1.084       .  S
C677        C678   1.400       .  A
C677       C1461   1.481       .  S
C678        H681   1.084       .  S
C682        C683   1.407       .  A
C682        C687   1.415       .  A
C682       C1333   1.489       .  S
C683        C684   1.393       .  A
C683        H688   1.084       .  S
C684        C685   1.392       .  A
C684        C949   1.470       .  S
C685        C686   1.403       .  A
C685        H689   1.084       .  S
C686        C687   1.414       .  A
C686       C1301   1.489       .  S
C687        H690   1.083       .  S
C691        C692   1.416       .  A
C691        C696   1.409       .  A
C691       C1293   1.500       .  S
C692        C693   1.417       .  A
C692        H697   1.082       .  S
C693        C694   1.408       .  A
C693       C1405   1.496       .  S
C694        C695   1.397       .  A
C694        H698   1.083       .  S
C695        C696   1.395       .  A
C695        C933   1.479       .  S
C696        H699   1.083       .  S
C700        C701   1.412       .  A
C700        C705   1.411       .  A
C700       C1477   1.495       .  S
C701        C702   1.403       .  A
C701        H706   1.083       .  S
C702        C703   1.400       .  A
C702        C917   1.481       .  S
C703        C704   1.403       .  A
C703        H707   1.084       .  S
C704        C705   1.403       .  A
C704       C1389   1.477       .  S
C705        H708   1.083       .  S
C709        C710   1.411       .  A
C709        C714   1.403       .  A
C709       C1269   1.489       .  S
C710        C711   1.414       .  A
C710        H715   1.083       .  S
C711        C712   1.411       .  A
C711       C1053   1.496       .  S
C712        C713   1.403       .  A
C712        H716   1.083       .  S
C713        C714   1.395       .  A
C713        C901   1.480       .  S
C714        H717   1.084       .  S
C718        C719   1.408       .  A
C718        C723   1.405       .  A
C718       C1317   1.484       .  S
C719        C720   1.414       .  A
C719        H724   1.083       .  S
C720        C721   1.412       .  A
C720       C1101   1.496       .  S
C721        C722   1.400       .  A
C721        H725   1.083       .  S
C722        C723   1.398       .  A
C722        C885   1.481       .  S
C723        H726   1.084       .  S
C727        C728   1.406       .  A
C727        C732   1.406       .  A
C727       C1373   1.480       .  S
C728        C729   1.402       .  A
C728        H733   1.083       .  S
C729        C730   1.405       .  A
C729       C1149   1.476       .  S
C730        C731   1.399       .  A
C730        H734   1.084       .  S
C731        C732   1.396       .  A
C731        C869   1.473       .  S
C732        H735   1.084       .  S
C736        C737   1.405       .  A
C736        C741   1.402       .  A
C736       C1453   1.470       .  S
C737        C738   1.404       .  A
C737        H742   1.084       .  S
C738        C739   1.403       .  A
C738       C1189   1.474       .  S
C739        C740   1.399       .  A
C739        H743   1.084       .  S
C740        C741   1.397       .  A
C740        C853   1.476       .  S
C741        H744   1.085       .  S
O745       Zr781   2.438   1_566  S
O745        C756   1.292       .  A
O746       Zr780   2.435   1_566  S
O746        C757   1.292       .  A
O747       Zr753   2.436       .  S
O747        C758   1.293       .  A
O748       Zr753   2.436   1_554  S
O748        C759   1.293       .  A
O749       Zr783   2.467   1_565  S
O749        C759   1.297       .  A
O750       Zr782   2.457       .  S
O750        C758   1.295   1_545  A
O751       Zr753   2.454   1_455  S
O751        C757   1.295       .  A
O752       Zr753   2.430       .  S
O752        C756   1.292       .  A
Zr753       O754   2.334   1_666  S
Zr753       O755   2.335   1_565  S
Zr753       O763   2.347   1_566  S
Zr753       O761   2.334   1_665  S
O754       Zr780   2.332       .  S
O754       Zr783   2.333   1_455  S
O755       Zr781   2.339   1_556  S
O755       Zr782   2.329       .  S
C756       C1997   1.475       .  S
C757       C1901   1.479       .  S
C758       C1749   1.491       .  S
C759       C1653   1.491       .  S
H760        O761   0.966       .  S
O761       Zr780   2.342   1_556  S
O761       Zr782   2.339   1_455  S
H762        O763   0.966   1_565  S
O763       Zr781   2.344       .  S
O763       Zr783   2.339       .  S
O764       Zr780   2.436       .  S
O764        C787   1.292       .  A
O765       Zr781   2.445       .  S
O765        C788   1.293       .  A
O766       Zr782   2.432   1_455  S
O766        C789   1.291       .  A
O767       Zr783   2.444   1_455  S
O767        C790   1.294       .  A
O768       Zr783   2.428       .  S
O768        C791   1.291       .  A
O769       Zr782   2.439       .  S
O769        C792   1.292       .  A
O770       Zr784   2.464   1_556  S
O770        C793   1.297       .  A
O771       Zr784   2.450       .  S
O771        C794   1.295       .  A
O772       Zr782   2.420       .  S
O772        C793   1.290       .  A
O773       Zr783   2.433       .  S
O773        C794   1.293       .  A
O774       Zr780   2.413   1_556  S
O774        C789   1.289       .  A
O775       Zr781   2.427   1_556  S
O775        C792   1.291       .  A
O776       Zr781   2.429       .  S
O776        C791   1.291       .  A
O777       Zr780   2.419       .  S
O777        C790   1.289       .  A
O778       Zr784   2.452   1_455  S
O778        C787   1.295       .  A
O779       Zr784   2.455       .  S
O779        C788   1.296       .  A
Zr780       O786   2.336   1_554  S
Zr780       O798   2.333       .  S
Zr781       O785   2.330       .  S
Zr781       O796   2.342   1_554  S
Zr782       O786   2.345   1_655  S
Zr782       O796   2.351       .  S
Zr783       O785   2.344       .  S
Zr783       O798   2.349   1_655  S
Zr784       O785   2.345       .  S
Zr784       O786   2.342   1_654  S
Zr784       O798   2.353   1_655  S
Zr784       O796   2.348   1_554  S
C787       C1237   1.485       .  S
C788       C1941   1.493       .  S
C789       C1709   1.469       .  S
C790       C1421   1.480       .  S
C791       C1605   1.474       .  S
C792       C1853   1.474       .  S
C793       C1805   1.485       .  S
C794       C1525   1.480       .  S
H795        O796   0.965       .  S
H797        O798   0.965       .  S
O799       Zr835   2.431       .  S
O799        C810   1.292       .  A
O800       Zr834   2.468       .  S
O800        C811   1.298       .  A
O801       Zr807   2.435       .  S
O801        C812   1.292       .  A
O802       Zr807   2.435       .  S
O802        C813   1.292       .  A
O803       Zr837   2.444       .  S
O803        C813   1.294       .  A
O804       Zr836   2.441       .  S
O804        C812   1.293       .  A
O805       Zr807   2.435       .  S
O805        C811   1.292       .  A
O806       Zr807   2.442       .  S
O806        C810   1.293       .  A
Zr807       O808   2.344       .  S
Zr807       O809   2.336       .  S
Zr807       O817   2.339       .  S
Zr807       O815   2.341       .  S
O808       Zr834   2.346       .  S
O808       Zr837   2.347       .  S
O809       Zr835   2.331       .  S
O809       Zr836   2.329       .  S
C810       C1037   1.482       .  S
C811       C1005   1.492       .  S
C812       C1013   1.478       .  S
C813        C981   1.482       .  S
H814        O815   0.966       .  S
O815       Zr834   2.348       .  S
O815       Zr836   2.344       .  S
H816        O817   0.966       .  S
O817       Zr835   2.336       .  S
O817       Zr837   2.338       .  S
O818       Zr834   2.462       .  S
O818        C841   1.296       .  A
O819       Zr835   2.428       .  S
O819        C842   1.291       .  A
O820       Zr836   2.416       .  S
O820        C843   1.289       .  A
O821       Zr837   2.450       .  S
O821        C844   1.295       .  A
O822       Zr837   2.462       .  S
O822        C845   1.296       .  A
O823       Zr836   2.435       .  S
O823        C846   1.292       .  A
O824       Zr838   2.452       .  S
O824        C847   1.295       .  A
O825       Zr838   2.430       .  S
O825        C848   1.291       .  A
O826       Zr836   2.435       .  S
O826        C847   1.292       .  A
O827       Zr837   2.434       .  S
O827        C848   1.292       .  A
O828       Zr834   2.440       .  S
O828        C843   1.293       .  A
O829       Zr835   2.428       .  S
O829        C846   1.290       .  A
O830       Zr835   2.420       .  S
O830        C845   1.290       .  A
O831       Zr834   2.445       .  S
O831        C844   1.294       .  A
O832       Zr838   2.441       .  S
O832        C841   1.293       .  A
O833       Zr838   2.448       .  S
O833        C842   1.294       .  A
Zr834       O840   2.346       .  S
Zr834       O852   2.346       .  S
Zr835       O839   2.337       .  S
Zr835       O850   2.333       .  S
Zr836       O840   2.342       .  S
Zr836       O850   2.332       .  S
Zr837       O839   2.343       .  S
Zr837       O852   2.347       .  S
Zr838       O839   2.346       .  S
Zr838       O840   2.339       .  S
Zr838       O852   2.347       .  S
Zr838       O850   2.339       .  S
C841        C973   1.486       .  S
C842        C941   1.478       .  S
C843        C861   1.464       .  S
C844        C893   1.489       .  S
C845        C909   1.483       .  S
C846        C877   1.473       .  S
C847        C925   1.484       .  S
C848        C957   1.476       .  S
H849        O850   0.965       .  S
H851        O852   0.965       .  S
C853        C854   1.405       .  A
C853        C858   1.404       .  A
C854        C855   1.394       .  A
C854        H863   1.083       .  S
C855        C856   1.400       .  A
C855        H864   1.084       .  S
C856        C862   1.399       .  A
C856        C857   1.415       .  A
C857        C859   1.401       .  A
C857        C858   1.400       .  A
C858        H865   1.084       .  S
C859        C860   1.394       .  A
C859        H866   1.084       .  S
C860        C861   1.404       .  A
C860        H867   1.084       .  S
C861        C862   1.400       .  A
C862        H868   1.085       .  S
C869        C870   1.402       .  A
C869        C874   1.404       .  A
C870        C871   1.395       .  A
C870        H879   1.083       .  S
C871        C872   1.401       .  A
C871        H880   1.084       .  S
C872        C878   1.401       .  A
C872        C873   1.415       .  A
C873        C875   1.402       .  A
C873        C874   1.403       .  A
C874        H881   1.085       .  S
C875        C876   1.397       .  A
C875        H882   1.084       .  S
C876        C877   1.405       .  A
C876        H883   1.083       .  S
C877        C878   1.404       .  A
C878        H884   1.085       .  S
C885        C886   1.403       .  A
C885        C890   1.405       .  A
C886        C887   1.400       .  A
C886        H895   1.083       .  S
C887        C888   1.404       .  A
C887        H896   1.083       .  S
C888        C894   1.407       .  A
C888        C889   1.414       .  A
C889        C891   1.401       .  A
C889        C890   1.405       .  A
C890        H897   1.084       .  S
C891        C892   1.398       .  A
C891        H898   1.084       .  S
C892        C893   1.408       .  A
C892        H899   1.083       .  S
C893        C894   1.410       .  A
C894        H900   1.084       .  S
C901        C902   1.406       .  A
C901        C906   1.401       .  A
C902        C903   1.400       .  A
C902        H911   1.083       .  S
C903        C904   1.403       .  A
C903        H912   1.083       .  S
C904        C910   1.409       .  A
C904        C905   1.416       .  A
C905        C907   1.398       .  A
C905        C906   1.403       .  A
C906        H913   1.085       .  S
C907        C908   1.393       .  A
C907        H914   1.084       .  S
C908        C909   1.409       .  A
C908        H915   1.083       .  S
C909        C910   1.407       .  A
C910        H916   1.084       .  S
C917        C918   1.403       .  A
C917        C922   1.407       .  A
C918        C919   1.397       .  A
C918        H927   1.083       .  S
C919        C920   1.403       .  A
C919        H928   1.084       .  S
C920        C926   1.403       .  A
C920        C921   1.413       .  A
C921        C923   1.405       .  A
C921        C922   1.408       .  A
C922        H929   1.084       .  S
C923        C924   1.402       .  A
C923        H930   1.083       .  S
C924        C925   1.406       .  A
C924        H931   1.083       .  S
C925        C926   1.408       .  A
C926        H932   1.084       .  S
C933        C934   1.404       .  A
C933        C938   1.406       .  A
C934        C935   1.396       .  A
C934        H943   1.083       .  S
C935        C936   1.402       .  A
C935        H944   1.084       .  S
C936        C942   1.401       .  A
C936        C937   1.414       .  A
C937        C939   1.403       .  A
C937        C938   1.404       .  A
C938        H945   1.084       .  S
C939        C940   1.399       .  A
C939        H946   1.084       .  S
C940        C941   1.405       .  A
C940        H947   1.083       .  S
C941        C942   1.407       .  A
C942        H948   1.085       .  S
C949        C950   1.402       .  A
C949        C954   1.400       .  A
C950        C951   1.400       .  A
C950        H959   1.083       .  S
C951        C952   1.405       .  A
C951        H960   1.084       .  S
C952        C958   1.403       .  A
C952        C953   1.413       .  A
C953        C955   1.398       .  A
C953        C954   1.395       .  A
C954        H961   1.085       .  S
C955        C956   1.391       .  A
C955        H962   1.084       .  S
C956        C957   1.405       .  A
C956        H963   1.083       .  S
C957        C958   1.409       .  A
C958        H964   1.084       .  S
C965        C966   1.406       .  A
C965        C970   1.406       .  A
C966        C967   1.401       .  A
C966        H975   1.083       .  S
C967        C968   1.404       .  A
C967        H976   1.083       .  S
C968        C974   1.411       .  A
C968        C969   1.415       .  A
C969        C971   1.402       .  A
C969        C970   1.408       .  A
C970        H977   1.084       .  S
C971        C972   1.398       .  A
C971        H978   1.084       .  S
C972        C973   1.407       .  A
C972        H979   1.083       .  S
C973        C974   1.408       .  A
C974        H980   1.084       .  S
C981        C982   1.406       .  A
C981        C986   1.409       .  A
C982        C983   1.396       .  A
C982        H991   1.083       .  S
C983        C984   1.401       .  A
C983        H992   1.084       .  S
C984        C990   1.403       .  A
C984        C985   1.414       .  A
C985        C987   1.405       .  A
C985        C986   1.405       .  A
C986        H993   1.084       .  S
C987        C988   1.400       .  A
C987        H994   1.084       .  S
C988        C989   1.403       .  A
C988        H995   1.083       .  S
C989        C990   1.403       .  A
C990        H996   1.085       .  S
C997        C998   1.405       .  A
C997       C1002   1.409       .  A
C998        C999   1.400       .  A
C998       H1007   1.083       .  S
C999       C1000   1.404       .  A
C999       H1008   1.084       .  S
C1000      C1006   1.408       .  A
C1000      C1001   1.413       .  A
C1001      C1003   1.405       .  A
C1001      C1002   1.410       .  A
C1002      H1009   1.084       .  S
C1003      C1004   1.402       .  A
C1003      H1010   1.083       .  S
C1004      C1005   1.406       .  A
C1004      H1011   1.083       .  S
C1005      C1006   1.412       .  A
C1006      H1012   1.084       .  S
C1013      C1014   1.405       .  A
C1013      C1018   1.407       .  A
C1014      C1015   1.396       .  A
C1014      H1023   1.083       .  S
C1015      C1016   1.402       .  A
C1015      H1024   1.084       .  S
C1016      C1022   1.401       .  A
C1016      C1017   1.414       .  A
C1017      C1019   1.403       .  A
C1017      C1018   1.404       .  A
C1018      H1025   1.084       .  S
C1019      C1020   1.398       .  A
C1019      H1026   1.084       .  S
C1020      C1021   1.405       .  A
C1020      H1027   1.083       .  S
C1021      C1022   1.405       .  A
C1022      H1028   1.084       .  S
C1029      C1030   1.401       .  A
C1029      C1034   1.402       .  A
C1030      C1031   1.399       .  A
C1030      H1039   1.083       .  S
C1031      C1032   1.404       .  A
C1031      H1040   1.083       .  S
C1032      C1038   1.404       .  A
C1032      C1033   1.414       .  A
C1033      C1035   1.400       .  A
C1033      C1034   1.401       .  A
C1034      H1041   1.085       .  S
C1035      C1036   1.395       .  A
C1035      H1042   1.084       .  S
C1036      C1037   1.408       .  A
C1036      H1043   1.083       .  S
C1037      C1038   1.408       .  A
C1038      H1044   1.084       .  S
C1045      C1046   1.406       .  A
C1045      C1050   1.407       .  A
C1046      C1047   1.399       .  A
C1046      H1055   1.084       .  S
C1047      C1048   1.403       .  A
C1047      H1056   1.084       .  S
C1048      C1054   1.408       .  A
C1048      C1049   1.414       .  A
C1049      C1051   1.403       .  A
C1049      C1050   1.411       .  A
C1050      H1057   1.084       .  S
C1051      C1052   1.401       .  A
C1051      H1058   1.083       .  S
C1052      C1053   1.407       .  A
C1052      H1059   1.083       .  S
C1053      C1054   1.411       .  A
C1054      H1060   1.084       .  S
C1061      C1062   1.407       .  A
C1061      C1066   1.406       .  A
C1062      C1063   1.403       .  A
C1062      H1071   1.083       .  S
C1063      C1064   1.405       .  A
C1063      H1072   1.083       .  S
C1064      C1070   1.412       .  A
C1064      C1065   1.415       .  A
C1065      C1067   1.401       .  A
C1065      C1066   1.405       .  A
C1066      H1073   1.084       .  S
C1067      C1068   1.396       .  A
C1067      H1074   1.084       .  S
C1068      C1069   1.404       .  A
C1068      H1075   1.084       .  S
C1069      C1070   1.407       .  A
C1070      H1076   1.084       .  S
C1077      C1078   1.407       .  A
C1077      C1082   1.401       .  A
C1078      C1079   1.400       .  A
C1078      H1087   1.083       .  S
C1079      C1080   1.403       .  A
C1079      H1088   1.084       .  S
C1080      C1086   1.407       .  A
C1080      C1081   1.414       .  A
C1081      C1083   1.396       .  A
C1081      C1082   1.398       .  A
C1082      H1089   1.085       .  S
C1083      C1084   1.390       .  A
C1083      H1090   1.084       .  S
C1084      C1085   1.409       .  A
C1084      H1091   1.082       .  S
C1085      C1086   1.409       .  A
C1086      H1092   1.083       .  S
C1093      C1094   1.403       .  A
C1093      C1098   1.406       .  A
C1094      C1095   1.395       .  A
C1094      H1103   1.084       .  S
C1095      C1096   1.401       .  A
C1095      H1104   1.084       .  S
C1096      C1102   1.403       .  A
C1096      C1097   1.414       .  A
C1097      C1099   1.403       .  A
C1097      C1098   1.409       .  A
C1098      H1105   1.084       .  S
C1099      C1100   1.401       .  A
C1099      H1106   1.084       .  S
C1100      C1101   1.409       .  A
C1100      H1107   1.082       .  S
C1101      C1102   1.409       .  A
C1102      H1108   1.083       .  S
C1109      C1110   1.406       .  A
C1109      C1114   1.414       .  A
C1110      C1111   1.393       .  A
C1110      H1119   1.083       .  S
C1111      C1112   1.399       .  A
C1111      H1120   1.084       .  S
C1112      C1118   1.403       .  A
C1112      C1113   1.413       .  A
C1113      C1115   1.409       .  A
C1113      C1114   1.417       .  A
C1114      H1121   1.084       .  S
C1115      C1116   1.409       .  A
C1115      H1122   1.083       .  S
C1116      C1117   1.407       .  A
C1116      H1123   1.083       .  S
C1117      C1118   1.407       .  A
C1118      H1124   1.084       .  S
C1125      C1126   1.406       .  A
C1125      C1130   1.407       .  A
C1126      C1127   1.403       .  A
C1126      H1135   1.083       .  S
C1127      C1128   1.404       .  A
C1127      H1136   1.083       .  S
C1128      C1134   1.411       .  A
C1128      C1129   1.414       .  A
C1129      C1131   1.400       .  A
C1129      C1130   1.405       .  A
C1130      H1137   1.085       .  S
C1131      C1132   1.395       .  A
C1131      H1138   1.084       .  S
C1132      C1133   1.408       .  A
C1132      H1139   1.083       .  S
C1133      C1134   1.409       .  A
C1134      H1140   1.084       .  S
C1141      C1142   1.404       .  A
C1141      C1146   1.404       .  A
C1142      C1143   1.407       .  A
C1142      H1151   1.083       .  S
C1143      C1144   1.409       .  A
C1143      H1152   1.083       .  S
C1144      C1150   1.409       .  A
C1144      C1145   1.412       .  A
C1145      C1147   1.399       .  A
C1145      C1146   1.393       .  A
C1146      H1153   1.085       .  S
C1147      C1148   1.389       .  A
C1147      H1154   1.084       .  S
C1148      C1149   1.402       .  A
C1148      H1155   1.084       .  S
C1149      C1150   1.409       .  A
C1150      H1156   1.084       .  S
C1157      C1158   1.400       .  A
C1157      C1162   1.404       .  A
C1158      C1159   1.393       .  A
C1158      H1167   1.084       .  S
C1159      C1160   1.401       .  A
C1159      H1168   1.084       .  S
C1160      C1166   1.398       .  A
C1160      C1161   1.414       .  A
C1161      C1163   1.403       .  A
C1161      C1162   1.405       .  A
C1162      H1169   1.085       .  S
C1163      C1164   1.400       .  A
C1163      H1170   1.084       .  S
C1164      C1165   1.408       .  A
C1164      H1171   1.082       .  S
C1165      C1166   1.405       .  A
C1166      H1172   1.084       .  S
C1173      C1174   1.407       .  A
C1173      C1178   1.407       .  A
C1174      C1175   1.394       .  A
C1174      H1183   1.083       .  S
C1175      C1176   1.400       .  A
C1175      H1184   1.084       .  S
C1176      C1182   1.401       .  A
C1176      C1177   1.414       .  A
C1177      C1179   1.403       .  A
C1177      C1178   1.406       .  A
C1178      H1185   1.084       .  S
C1179      C1180   1.399       .  A
C1179      H1186   1.083       .  S
C1180      C1181   1.405       .  A
C1180      H1187   1.083       .  S
C1181      C1182   1.405       .  A
C1182      H1188   1.085       .  S
C1189      C1190   1.403       .  A
C1189      C1194   1.406       .  A
C1190      C1191   1.391       .  A
C1190      H1199   1.084       .  S
C1191      C1192   1.399       .  A
C1191      H1200   1.084       .  S
C1192      C1198   1.398       .  A
C1192      C1193   1.414       .  A
C1193      C1195   1.406       .  A
C1193      C1194   1.409       .  A
C1194      H1201   1.084       .  S
C1195      C1196   1.404       .  A
C1195      H1202   1.083       .  S
C1196      C1197   1.405       .  A
C1196      H1203   1.083       .  S
C1197      C1198   1.404       .  A
C1198      H1204   1.084       .  S
C1205      C1206   1.405       .  A
C1205      C1210   1.410       .  A
C1206      C1207   1.391       .  A
C1206      H1215   1.083       .  S
C1207      C1208   1.398       .  A
C1207      H1216   1.084       .  S
C1208      C1214   1.397       .  A
C1208      C1209   1.413       .  A
C1209      C1211   1.406       .  A
C1209      C1210   1.409       .  A
C1210      H1217   1.084       .  S
C1211      C1212   1.403       .  A
C1211      H1218   1.083       .  S
C1212      C1213   1.407       .  A
C1212      H1219   1.083       .  S
C1213      C1214   1.405       .  A
C1214      H1220   1.084       .  S
C1221      C1222   1.405       .  A
C1221      C1226   1.404       .  A
C1222      C1223   1.406       .  A
C1222      H1231   1.083       .  S
C1223      C1224   1.407       .  A
C1223      H1232   1.083       .  S
C1224      C1230   1.415       .  A
C1224      C1225   1.414       .  A
C1225      C1227   1.399       .  A
C1225      C1226   1.406       .  A
C1226      H1233   1.085       .  S
C1227      C1228   1.395       .  A
C1227      H1234   1.084       .  S
C1228      C1229   1.407       .  A
C1228      H1235   1.083       .  S
C1229      C1230   1.413       .  A
C1230      H1236   1.084       .  S
C1237      C1238   1.406   1_554  A
C1237      C1242   1.409       .  A
C1238      C1239   1.400       .  A
C1238      H1247   1.083       .  S
C1239      C1240   1.403   1_556  A
C1239      H1248   1.083       .  S
C1240      C1246   1.407       .  A
C1240      C1241   1.414       .  A
C1241      C1243   1.403       .  A
C1241      C1242   1.405       .  A
C1242      H1249   1.084       .  S
C1243      C1244   1.399       .  A
C1243      H1250   1.084       .  S
C1244      C1245   1.404       .  A
C1244      H1251   1.083       .  S
C1245      C1246   1.406       .  A
C1246      H1252   1.084   1_554  S
C1253      C1254   1.410       .  A
C1253      C1258   1.408       .  A
C1254      C1255   1.394       .  A
C1254      H1263   1.082       .  S
C1255      C1256   1.398       .  A
C1255      H1264   1.084       .  S
C1256      C1262   1.404       .  A
C1256      C1257   1.415       .  A
C1257      C1259   1.402       .  A
C1257      C1258   1.411       .  A
C1258      H1265   1.084       .  S
C1259      C1260   1.401       .  A
C1259      H1266   1.083       .  S
C1260      C1261   1.409       .  A
C1260      H1267   1.083       .  S
C1261      C1262   1.406       .  A
C1262      H1268   1.084       .  S
C1269      C1270   1.406       .  A
C1269      C1274   1.407       .  A
C1270      C1271   1.403       .  A
C1270      H1279   1.083       .  S
C1271      C1272   1.405       .  A
C1271      H1280   1.083       .  S
C1272      C1278   1.407       .  A
C1272      C1273   1.412       .  A
C1273      C1275   1.400       .  A
C1273      C1274   1.398       .  A
C1274      H1281   1.084       .  S
C1275      C1276   1.392       .  A
C1275      H1282   1.084       .  S
C1276      C1277   1.406       .  A
C1276      H1283   1.083       .  S
C1277      C1278   1.410       .  A
C1278      H1284   1.084       .  S
C1285      C1286   1.406       .  A
C1285      C1290   1.401       .  A
C1286      C1287   1.405       .  A
C1286      H1295   1.083       .  S
C1287      C1288   1.406       .  A
C1287      H1296   1.083       .  S
C1288      C1294   1.414       .  A
C1288      C1289   1.414       .  A
C1289      C1291   1.396       .  A
C1289      C1290   1.402       .  A
C1290      H1297   1.085       .  S
C1291      C1292   1.392       .  A
C1291      H1298   1.084       .  S
C1292      C1293   1.411       .  A
C1292      H1299   1.082       .  S
C1293      C1294   1.413       .  A
C1294      H1300   1.083       .  S
C1301      C1302   1.410       .  A
C1301      C1306   1.406       .  A
C1302      C1303   1.394       .  A
C1302      H1311   1.083       .  S
C1303      C1304   1.398       .  A
C1303      H1312   1.084       .  S
C1304      C1310   1.403       .  A
C1304      C1305   1.416       .  A
C1305      C1307   1.402       .  A
C1305      C1306   1.408       .  A
C1306      H1313   1.084       .  S
C1307      C1308   1.399       .  A
C1307      H1314   1.083       .  S
C1308      C1309   1.404       .  A
C1308      H1315   1.083       .  S
C1309      C1310   1.403       .  A
C1310      H1316   1.085       .  S
C1317      C1318   1.404       .  A
C1317      C1322   1.411       .  A
C1318      C1319   1.392       .  A
C1318      H1327   1.084       .  S
C1319      C1320   1.399       .  A
C1319      H1328   1.084       .  S
C1320      C1326   1.398       .  A
C1320      C1321   1.413       .  A
C1321      C1323   1.408       .  A
C1321      C1322   1.412       .  A
C1322      H1329   1.084       .  S
C1323      C1324   1.407       .  A
C1323      H1330   1.083       .  S
C1324      C1325   1.405       .  A
C1324      H1331   1.083       .  S
C1325      C1326   1.407       .  A
C1326      H1332   1.084       .  S
C1333      C1334   1.405       .  A
C1333      C1338   1.408       .  A
C1334      C1335   1.404       .  A
C1334      H1343   1.083       .  S
C1335      C1336   1.407       .  A
C1335      H1344   1.083       .  S
C1336      C1342   1.409       .  A
C1336      C1337   1.412       .  A
C1337      C1339   1.400       .  A
C1337      C1338   1.399       .  A
C1338      H1345   1.084       .  S
C1339      C1340   1.394       .  A
C1339      H1346   1.084       .  S
C1340      C1341   1.405       .  A
C1340      H1347   1.083       .  S
C1341      C1342   1.412       .  A
C1342      H1348   1.084       .  S
C1349      C1350   1.406       .  A
C1349      C1354   1.404       .  A
C1350      C1351   1.398       .  A
C1350      H1359   1.083       .  S
C1351      C1352   1.402       .  A
C1351      H1360   1.084       .  S
C1352      C1358   1.407       .  A
C1352      C1353   1.416       .  A
C1353      C1355   1.401       .  A
C1353      C1354   1.404       .  A
C1354      H1361   1.084       .  S
C1355      C1356   1.396       .  A
C1355      H1362   1.084       .  S
C1356      C1357   1.404       .  A
C1356      H1363   1.084       .  S
C1357      C1358   1.403       .  A
C1358      H1364   1.084       .  S
C1365      C1366   1.404       .  A
C1365      C1370   1.403       .  A
C1366      C1367   1.393       .  A
C1366      H1375   1.084       .  S
C1367      C1368   1.400       .  A
C1367      H1376   1.084       .  S
C1368      C1374   1.397       .  A
C1368      C1369   1.414       .  A
C1369      C1371   1.401       .  A
C1369      C1370   1.402       .  A
C1370      H1377   1.084       .  S
C1371      C1372   1.396       .  A
C1371      H1378   1.084       .  S
C1372      C1373   1.406       .  A
C1372      H1379   1.083       .  S
C1373      C1374   1.405       .  A
C1374      H1380   1.084       .  S
C1381      C1382   1.406       .  A
C1381      C1386   1.407       .  A
C1382      C1383   1.391       .  A
C1382      H1391   1.084       .  S
C1383      C1384   1.397       .  A
C1383      H1392   1.084       .  S
C1384      C1390   1.400       .  A
C1384      C1385   1.416       .  A
C1385      C1387   1.406       .  A
C1385      C1386   1.412       .  A
C1386      H1393   1.084       .  S
C1387      C1388   1.404       .  A
C1387      H1394   1.083       .  S
C1388      C1389   1.404       .  A
C1388      H1395   1.083       .  S
C1389      C1390   1.399       .  A
C1390      H1396   1.085       .  S
C1397      C1398   1.404       .  A
C1397      C1402   1.409       .  A
C1398      C1399   1.396       .  A
C1398      H1407   1.084       .  S
C1399      C1400   1.401       .  A
C1399      H1408   1.084       .  S
C1400      C1406   1.405       .  A
C1400      C1401   1.414       .  A
C1401      C1403   1.406       .  A
C1401      C1402   1.414       .  A
C1402      H1409   1.084       .  S
C1403      C1404   1.404       .  A
C1403      H1410   1.083       .  S
C1404      C1405   1.407       .  A
C1404      H1411   1.083       .  S
C1405      C1406   1.410       .  A
C1406      H1412   1.084       .  S
C1413      C1414   1.402       .  A
C1413      C1418   1.404       .  A
C1414      C1415   1.396       .  A
C1414      H1423   1.083       .  S
C1415      C1416   1.403       .  A
C1415      H1424   1.084       .  S
C1416      C1422   1.400       .  A
C1416      C1417   1.413       .  A
C1417      C1419   1.402       .  A
C1417      C1418   1.402       .  A
C1418      H1425   1.085       .  S
C1419      C1420   1.397       .  A
C1419      H1426   1.084       .  S
C1420      C1421   1.406       .  A
C1420      H1427   1.083       .  S
C1421      C1422   1.408       .  A
C1422      H1428   1.084       .  S
C1429      C1430   1.405       .  A
C1429      C1434   1.408       .  A
C1430      C1431   1.392       .  A
C1430      H1439   1.083       .  S
C1431      C1432   1.399       .  A
C1431      H1440   1.084       .  S
C1432      C1438   1.399       .  A
C1432      C1433   1.414       .  A
C1433      C1435   1.406       .  A
C1433      C1434   1.409       .  A
C1434      H1441   1.084       .  S
C1435      C1436   1.403       .  A
C1435      H1442   1.083       .  S
C1436      C1437   1.406       .  A
C1436      H1443   1.083       .  S
C1437      C1438   1.405       .  A
C1438      H1444   1.085       .  S
C1445      C1446   1.403       .  A
C1445      C1450   1.400       .  A
C1446      C1447   1.400       .  A
C1446      H1455   1.083       .  S
C1447      C1448   1.404       .  A
C1447      H1456   1.083       .  S
C1448      C1454   1.405       .  A
C1448      C1449   1.416       .  A
C1449      C1451   1.398       .  A
C1449      C1450   1.396       .  A
C1450      H1457   1.085       .  S
C1451      C1452   1.390       .  A
C1451      H1458   1.084       .  S
C1452      C1453   1.403       .  A
C1452      H1459   1.084       .  S
C1453      C1454   1.403       .  A
C1454      H1460   1.084       .  S
C1461      C1462   1.406       .  A
C1461      C1466   1.404       .  A
C1462      C1463   1.398       .  A
C1462      H1471   1.083       .  S
C1463      C1464   1.402       .  A
C1463      H1472   1.084       .  S
C1464      C1470   1.406       .  A
C1464      C1465   1.416       .  A
C1465      C1467   1.401       .  A
C1465      C1466   1.404       .  A
C1466      H1473   1.084       .  S
C1467      C1468   1.395       .  A
C1467      H1474   1.084       .  S
C1468      C1469   1.402       .  A
C1468      H1475   1.084       .  S
C1469      C1470   1.403       .  A
C1470      H1476   1.085       .  S
C1477      C1478   1.409       .  A
C1477      C1482   1.409       .  A
C1478      C1479   1.400       .  A
C1478      H1487   1.082       .  S
C1479      C1480   1.403       .  A
C1479      H1488   1.084       .  S
C1480      C1486   1.408       .  A
C1480      C1481   1.413       .  A
C1481      C1483   1.401       .  A
C1481      C1482   1.403       .  A
C1482      H1489   1.083       .  S
C1483      C1484   1.395       .  A
C1483      H1490   1.084       .  S
C1484      C1485   1.405       .  A
C1484      H1491   1.083       .  S
C1485      C1486   1.408       .  A
C1486      H1492   1.084       .  S
C1493      C1494   1.408       .  A
C1493      C1498   1.406       .  A
C1494      C1495   1.399       .  A
C1494      H1503   1.083       .  S
C1495      C1496   1.402       .  A
C1495      H1504   1.084       .  S
C1496      C1502   1.407       .  A
C1496      C1497   1.415       .  A
C1497      C1499   1.401       .  A
C1497      C1498   1.402       .  A
C1498      H1505   1.084       .  S
C1499      C1500   1.395       .  A
C1499      H1506   1.084       .  S
C1500      C1501   1.404       .  A
C1500      H1507   1.083       .  S
C1501      C1502   1.403       .  A
C1502      H1508   1.084       .  S
C1509      C1510   1.406       .  A
C1509      C1514   1.406       .  A
C1510      C1511   1.396       .  A
C1510      H1519   1.083       .  S
C1511      C1512   1.401       .  A
C1511      H1520   1.084       .  S
C1512      C1518   1.402       .  A
C1512      C1513   1.415       .  A
C1513      C1515   1.404       .  A
C1513      C1514   1.405       .  A
C1514      H1521   1.084       .  S
C1515      C1516   1.400       .  A
C1515      H1522   1.084       .  S
C1516      C1517   1.403       .  A
C1516      H1523   1.083       .  S
C1517      C1518   1.401       .  A
C1518      H1524   1.084       .  S
C1525      C1526   1.406       .  A
C1525      C1530   1.409       .  A
C1526      C1527   1.392       .  A
C1526      H1535   1.083       .  S
C1527      C1528   1.399       .  A
C1527      H1536   1.084       .  S
C1528      C1534   1.399       .  A
C1528      C1529   1.414       .  A
C1529      C1531   1.405   1_655  A
C1529      C1530   1.408       .  A
C1530      H1537   1.084       .  S
C1531      C1532   1.402       .  A
C1531      H1538   1.084       .  S
C1532      C1533   1.406   1_455  A
C1532      H1539   1.083       .  S
C1533      C1534   1.402       .  A
C1534      H1540   1.085       .  S
C1541      C1542   1.404       .  A
C1541      C1546   1.405       .  A
C1542      C1543   1.402       .  A
C1542      H1551   1.083       .  S
C1543      C1544   1.405       .  A
C1543      H1552   1.083       .  S
C1544      C1550   1.411       .  A
C1544      C1545   1.414       .  A
C1545      C1547   1.399       .  A
C1545      C1546   1.404       .  A
C1546      H1553   1.085       .  S
C1547      C1548   1.395       .  A
C1547      H1554   1.084       .  S
C1548      C1549   1.410       .  A
C1548      H1555   1.083       .  S
C1549      C1550   1.410       .  A
C1550      H1556   1.083       .  S
C1557      C1558   1.406       .  A
C1557      C1562   1.410       .  A
C1558      C1559   1.392       .  A
C1558      H1567   1.083       .  S
C1559      C1560   1.398       .  A
C1559      H1568   1.084       .  S
C1560      C1566   1.400       .  A
C1560      C1561   1.414       .  A
C1561      C1563   1.407       .  A
C1561      C1562   1.412       .  A
C1562      H1569   1.084       .  S
C1563      C1564   1.405       .  A
C1563      H1570   1.083       .  S
C1564      C1565   1.405       .  A
C1564      H1571   1.083       .  S
C1565      C1566   1.403       .  A
C1566      H1572   1.085       .  S
C1573      C1574   1.402       .  A
C1573      C1578   1.399       .  A
C1574      C1575   1.401       .  A
C1574      H1583   1.083       .  S
C1575      C1576   1.405       .  A
C1575      H1584   1.083       .  S
C1576      C1582   1.408       .  A
C1576      C1577   1.416       .  A
C1577      C1579   1.398       .  A
C1577      C1578   1.400       .  A
C1578      H1585   1.085       .  S
C1579      C1580   1.392       .  A
C1579      H1586   1.084       .  S
C1580      C1581   1.407       .  A
C1580      H1587   1.083       .  S
C1581      C1582   1.408       .  A
C1582      H1588   1.084       .  S
C1589      C1590   1.405       .  A
C1589      C1594   1.409       .  A
C1590      C1591   1.397       .  A
C1590      H1599   1.083       .  S
C1591      C1592   1.402       .  A
C1591      H1600   1.084       .  S
C1592      C1598   1.402       .  A
C1592      C1593   1.412       .  A
C1593      C1595   1.404       .  A
C1593      C1594   1.407       .  A
C1594      H1601   1.084       .  S
C1595      C1596   1.401       .  A
C1595      H1602   1.083       .  S
C1596      C1597   1.406       .  A
C1596      H1603   1.083       .  S
C1597      C1598   1.409       .  A
C1598      H1604   1.084       .  S
C1605      C1606   1.406       .  A
C1605      C1610   1.406       .  A
C1606      C1607   1.393       .  A
C1606      H1615   1.083       .  S
C1607      C1608   1.399       .  A
C1607      H1616   1.084       .  S
C1608      C1614   1.398       .  A
C1608      C1609   1.415       .  A
C1609      C1611   1.403       .  A
C1609      C1610   1.402       .  A
C1610      H1617   1.084       .  S
C1611      C1612   1.397       .  A
C1611      H1618   1.084       .  S
C1612      C1613   1.404       .  A
C1612      H1619   1.083       .  S
C1613      C1614   1.400       .  A
C1614      H1620   1.085       .  S
C1621      C1622   1.410       .  A
C1621      C1626   1.414       .  A
C1622      C1623   1.397       .  A
C1622      H1631   1.082       .  S
C1623      C1624   1.400       .  A
C1623      H1632   1.084       .  S
C1624      C1630   1.407       .  A
C1624      C1625   1.413       .  A
C1625      C1627   1.406       .  A
C1625      C1626   1.413       .  A
C1626      H1633   1.083       .  S
C1627      C1628   1.404       .  A
C1627      H1634   1.083       .  S
C1628      C1629   1.405       .  A
C1628      H1635   1.083       .  S
C1629      C1630   1.406       .  A
C1630      H1636   1.085       .  S
C1637      C1638   1.403       .  A
C1637      C1642   1.408       .  A
C1638      C1639   1.394       .  A
C1638      H1647   1.083       .  S
C1639      C1640   1.401       .  A
C1639      H1648   1.084       .  S
C1640      C1646   1.401       .  A
C1640      C1641   1.414       .  A
C1641      C1643   1.407       .  A
C1641      C1642   1.411       .  A
C1642      H1649   1.084       .  S
C1643      C1644   1.404       .  A
C1643      H1650   1.083       .  S
C1644      C1645   1.404       .  A
C1644      H1651   1.083       .  S
C1645      C1646   1.404       .  A
C1646      H1652   1.085       .  S
C1653      C1654   1.407       .  A
C1653      C1658   1.412       .  A
C1654      C1655   1.393   1_655  A
C1654      H1663   1.083   1_655  S
C1655      C1656   1.398   1_455  A
C1655      H1664   1.084       .  S
C1656      C1662   1.404       .  A
C1656      C1657   1.414       .  A
C1657      C1659   1.406       .  A
C1657      C1658   1.415       .  A
C1658      H1665   1.084       .  S
C1659      C1660   1.405       .  A
C1659      H1666   1.083       .  S
C1660      C1661   1.409       .  A
C1660      H1667   1.083       .  S
C1661      C1662   1.404       .  A
C1662      H1668   1.084   1_655  S
C1669      C1670   1.404       .  A
C1669      C1674   1.401       .  A
C1670      C1671   1.399       .  A
C1670      H1679   1.083       .  S
C1671      C1672   1.403       .  A
C1671      H1680   1.083       .  S
C1672      C1678   1.405       .  A
C1672      C1673   1.413       .  A
C1673      C1675   1.396       .  A
C1673      C1674   1.398       .  A
C1674      H1681   1.084       .  S
C1675      C1676   1.391       .  A
C1675      H1682   1.084       .  S
C1676      C1677   1.412       .  A
C1676      H1683   1.082       .  S
C1677      C1678   1.409       .  A
C1678      H1684   1.082       .  S
C1685      C1686   1.405       .  A
C1685      C1690   1.410       .  A
C1686      C1687   1.395       .  A
C1686      H1695   1.083       .  S
C1687      C1688   1.402       .  A
C1687      H1696   1.084       .  S
C1688      C1694   1.396       .  A
C1688      C1689   1.410       .  A
C1689      C1691   1.406       .  A
C1689      C1690   1.402       .  A
C1690      H1697   1.084       .  S
C1691      C1692   1.401       .  A
C1691      H1698   1.083       .  S
C1692      C1693   1.404       .  A
C1692      H1699   1.083       .  S
C1693      C1694   1.409       .  A
C1694      H1700   1.084       .  S
C1701      C1702   1.399       .  A
C1701      C1706   1.400       .  A
C1702      C1703   1.394       .  A
C1702      H1711   1.083       .  S
C1703      C1704   1.403       .  A
C1703      H1712   1.084       .  S
C1704      C1710   1.394       .  A
C1704      C1705   1.413       .  A
C1705      C1707   1.401       .  A
C1705      C1706   1.395       .  A
C1706      H1713   1.085       .  S
C1707      C1708   1.394       .  A
C1707      H1714   1.084       .  S
C1708      C1709   1.405       .  A
C1708      H1715   1.083       .  S
C1709      C1710   1.405       .  A
C1710      H1716   1.084       .  S
C1717      C1718   1.410       .  A
C1717      C1722   1.408       .  A
C1718      C1719   1.401       .  A
C1718      H1727   1.082       .  S
C1719      C1720   1.402       .  A
C1719      H1728   1.084       .  S
C1720      C1726   1.410       .  A
C1720      C1721   1.414       .  A
C1721      C1723   1.400       .  A
C1721      C1722   1.405       .  A
C1722      H1729   1.083       .  S
C1723      C1724   1.396       .  A
C1723      H1730   1.084       .  S
C1724      C1725   1.407       .  A
C1724      H1731   1.083       .  S
C1725      C1726   1.408       .  A
C1726      H1732   1.084       .  S
C1733      C1734   1.404       .  A
C1733      C1738   1.402       .  A
C1734      C1735   1.398       .  A
C1734      H1743   1.084       .  S
C1735      C1736   1.403       .  A
C1735      H1744   1.084       .  S
C1736      C1742   1.408       .  A
C1736      C1737   1.415       .  A
C1737      C1739   1.400       .  A
C1737      C1738   1.406       .  A
C1738      H1745   1.085       .  S
C1739      C1740   1.397       .  A
C1739      H1746   1.084       .  S
C1740      C1741   1.409       .  A
C1740      H1747   1.083       .  S
C1741      C1742   1.409       .  A
C1742      H1748   1.084       .  S
C1749      C1750   1.408       .  A
C1749      C1754   1.412       .  A
C1750      C1751   1.393       .  A
C1750      H1759   1.083       .  S
C1751      C1752   1.398       .  A
C1751      H1760   1.084       .  S
C1752      C1758   1.404       .  A
C1752      C1753   1.415       .  A
C1753      C1755   1.406       .  A
C1753      C1754   1.414       .  A
C1754      H1761   1.084       .  S
C1755      C1756   1.404       .  A
C1755      H1762   1.083       .  S
C1756      C1757   1.405       .  A
C1756      H1763   1.083       .  S
C1757      C1758   1.402       .  A
C1758      H1764   1.085       .  S
C1765      C1766   1.406       .  A
C1765      C1770   1.410       .  A
C1766      C1767   1.403       .  A
C1766      H1775   1.083       .  S
C1767      C1768   1.405       .  A
C1767      H1776   1.083       .  S
C1768      C1774   1.412       .  A
C1768      C1769   1.414       .  A
C1769      C1771   1.402       .  A
C1769      C1770   1.405       .  A
C1770      H1777   1.084       .  S
C1771      C1772   1.397       .  A
C1771      H1778   1.084       .  S
C1772      C1773   1.406       .  A
C1772      H1779   1.084       .  S
C1773      C1774   1.408       .  A
C1774      H1780   1.084       .  S
C1781      C1782   1.408       .  A
C1781      C1786   1.409       .  A
C1782      C1783   1.396       .  A
C1782      H1791   1.083       .  S
C1783      C1784   1.400       .  A
C1783      H1792   1.084       .  S
C1784      C1790   1.406       .  A
C1784      C1785   1.415       .  A
C1785      C1787   1.405       .  A
C1785      C1786   1.412       .  A
C1786      H1793   1.084       .  S
C1787      C1788   1.403       .  A
C1787      H1794   1.083       .  S
C1788      C1789   1.404       .  A
C1788      H1795   1.083       .  S
C1789      C1790   1.403       .  A
C1790      H1796   1.085       .  S
C1797      C1798   1.403       .  A
C1797      C1802   1.408       .  A
C1798      C1799   1.393       .  A
C1798      H1807   1.083       .  S
C1799      C1800   1.401       .  A
C1799      H1808   1.084       .  S
C1800      C1806   1.399       .  A
C1800      C1801   1.413       .  A
C1801      C1803   1.406       .  A
C1801      C1802   1.409       .  A
C1802      H1809   1.084       .  S
C1803      C1804   1.403       .  A
C1803      H1810   1.083       .  S
C1804      C1805   1.406       .  A
C1804      H1811   1.083       .  S
C1805      C1806   1.408       .  A
C1806      H1812   1.084       .  S
C1813      C1814   1.407       .  A
C1813      C1818   1.407       .  A
C1814      C1815   1.399       .  A
C1814      H1823   1.083       .  S
C1815      C1816   1.402       .  A
C1815      H1824   1.084       .  S
C1816      C1822   1.410       .  A
C1816      C1817   1.416       .  A
C1817      C1819   1.404       .  A
C1817      C1818   1.411       .  A
C1818      H1825   1.084       .  S
C1819      C1820   1.401       .  A
C1819      H1826   1.083       .  S
C1820      C1821   1.403       .  A
C1820      H1827   1.083       .  S
C1821      C1822   1.405       .  A
C1822      H1828   1.084       .  S
C1829      C1830   1.407       .  A
C1829      C1834   1.405       .  A
C1830      C1831   1.399       .  A
C1830      H1839   1.083       .  S
C1831      C1832   1.402       .  A
C1831      H1840   1.083       .  S
C1832      C1838   1.411       .  A
C1832      C1833   1.416       .  A
C1833      C1835   1.400       .  A
C1833      C1834   1.408       .  A
C1834      H1841   1.084       .  S
C1835      C1836   1.396       .  A
C1835      H1842   1.084       .  S
C1836      C1837   1.409       .  A
C1836      H1843   1.083       .  S
C1837      C1838   1.405       .  A
C1838      H1844   1.084       .  S
C1845      C1846   1.404       .  A
C1845      C1850   1.404       .  A
C1846      C1847   1.400       .  A
C1846      H1855   1.083       .  S
C1847      C1848   1.404       .  A
C1847      H1856   1.084       .  S
C1848      C1854   1.404       .  A
C1848      C1849   1.414       .  A
C1849      C1851   1.400       .  A
C1849      C1850   1.398       .  A
C1850      H1857   1.085       .  S
C1851      C1852   1.393       .  A
C1851      H1858   1.084       .  S
C1852      C1853   1.405       .  A
C1852      H1859   1.083       .  S
C1853      C1854   1.406       .  A
C1854      H1860   1.084       .  S
C1861      C1862   1.408       .  A
C1861      C1866   1.409       .  A
C1862      C1863   1.394       .  A
C1862      H1871   1.083       .  S
C1863      C1864   1.398       .  A
C1863      H1872   1.084       .  S
C1864      C1870   1.404       .  A
C1864      C1865   1.415       .  A
C1865      C1867   1.403       .  A
C1865      C1866   1.410       .  A
C1866      H1873   1.084       .  S
C1867      C1868   1.400       .  A
C1867      H1874   1.083       .  S
C1868      C1869   1.406       .  A
C1868      H1875   1.083       .  S
C1869      C1870   1.404       .  A
C1870      H1876   1.085       .  S
C1877      C1878   1.406       .  A
C1877      C1882   1.409       .  A
C1878      C1879   1.402       .  A
C1878      H1887   1.083       .  S
C1879      C1880   1.404       .  A
C1879      H1888   1.083       .  S
C1880      C1886   1.409       .  A
C1880      C1881   1.414       .  A
C1881      C1883   1.403       .  A
C1881      C1882   1.403       .  A
C1882      H1889   1.084       .  S
C1883      C1884   1.397       .  A
C1883      H1890   1.084       .  S
C1884      C1885   1.403       .  A
C1884      H1891   1.083       .  S
C1885      C1886   1.406       .  A
C1886      H1892   1.084       .  S
C1893      C1894   1.406       .  A
C1893      C1898   1.405   1_556  A
C1894      C1895   1.400       .  A
C1894      H1903   1.083       .  S
C1895      C1896   1.404       .  A
C1895      H1904   1.083       .  S
C1896      C1902   1.408       .  A
C1896      C1897   1.415   1_556  A
C1897      C1899   1.401       .  A
C1897      C1898   1.403       .  A
C1898      H1905   1.084       .  S
C1899      C1900   1.396       .  A
C1899      H1906   1.084       .  S
C1900      C1901   1.405   1_554  A
C1900      H1907   1.084       .  S
C1901      C1902   1.407       .  A
C1902      H1908   1.084       .  S
C1909      C1910   1.408       .  A
C1909      C1914   1.414       .  A
C1910      C1911   1.393       .  A
C1910      H1919   1.083       .  S
C1911      C1912   1.398       .  A
C1911      H1920   1.084       .  S
C1912      C1918   1.403       .  A
C1912      C1913   1.414       .  A
C1913      C1915   1.409       .  A
C1913      C1914   1.419       .  A
C1914      H1921   1.084       .  S
C1915      C1916   1.410       .  A
C1915      H1922   1.083       .  S
C1916      C1917   1.407       .  A
C1916      H1923   1.083       .  S
C1917      C1918   1.406       .  A
C1918      H1924   1.085       .  S
C1925      C1926   1.411       .  A
C1925      C1930   1.414       .  A
C1926      C1927   1.397       .  A
C1926      H1935   1.083       .  S
C1927      C1928   1.400       .  A
C1927      H1936   1.084       .  S
C1928      C1934   1.408       .  A
C1928      C1929   1.414       .  A
C1929      C1931   1.406       .  A
C1929      C1930   1.416       .  A
C1930      H1937   1.083       .  S
C1931      C1932   1.405       .  A
C1931      H1938   1.083       .  S
C1932      C1933   1.406       .  A
C1932      H1939   1.083       .  S
C1933      C1934   1.407       .  A
C1934      H1940   1.085       .  S
C1941      C1942   1.408       .  A
C1941      C1946   1.411       .  A
C1942      C1943   1.401       .  A
C1942      H1951   1.083   1_554  S
C1943      C1944   1.403       .  A
C1943      H1952   1.083   1_554  S
C1944      C1950   1.410       .  A
C1944      C1945   1.414       .  A
C1945      C1947   1.404       .  A
C1945      C1946   1.409       .  A
C1946      H1953   1.084       .  S
C1947      C1948   1.400       .  A
C1947      H1954   1.084       .  S
C1948      C1949   1.403       .  A
C1948      H1955   1.083       .  S
C1949      C1950   1.406       .  A
C1950      H1956   1.084       .  S
C1957      C1958   1.405       .  A
C1957      C1962   1.408       .  A
C1958      C1959   1.400       .  A
C1958      H1967   1.083       .  S
C1959      C1960   1.404       .  A
C1959      H1968   1.084       .  S
C1960      C1966   1.404       .  A
C1960      C1961   1.412       .  A
C1961      C1963   1.402       .  A
C1961      C1962   1.401       .  A
C1962      H1969   1.084       .  S
C1963      C1964   1.396       .  A
C1963      H1970   1.084       .  S
C1964      C1965   1.406       .  A
C1964      H1971   1.083       .  S
C1965      C1966   1.410       .  A
C1966      H1972   1.084       .  S
C1973      C1974   1.409       .  A
C1973      C1978   1.408       .  A
C1974      C1975   1.393       .  A
C1974      H1983   1.083       .  S
C1975      C1976   1.398       .  A
C1975      H1984   1.084       .  S
C1976      C1982   1.402       .  A
C1976      C1977   1.415       .  A
C1977      C1979   1.404       .  A
C1977      C1978   1.409       .  A
C1978      H1985   1.084       .  S
C1979      C1980   1.400       .  A
C1979      H1986   1.083       .  S
C1980      C1981   1.405       .  A
C1980      H1987   1.083       .  S
C1981      C1982   1.402       .  A
C1982      H1988   1.085       .  S
C1989      C1990   1.405       .  A
C1989      C1994   1.402   1_554  A
C1990      C1991   1.400       .  A
C1990      H1999   1.083       .  S
C1991      C1992   1.405       .  A
C1991      H2000   1.084       .  S
C1992      C1998   1.405       .  A
C1992      C1993   1.414   1_554  A
C1993      C1995   1.399       .  A
C1993      C1994   1.396       .  A
C1994      H2001   1.085       .  S
C1995      C1996   1.392       .  A
C1995      H2002   1.084       .  S
C1996      C1997   1.405       .  A
C1996      H2003   1.083       .  S
C1997      C1998   1.407   1_556  A
C1998      H2004   1.084       .  S
