geometry optimzed in LAMMPS
_audit_creation_date              2020-12-01 
_audit_creation_method            'lammps2cif' 
_symmetry_space_group_name_H-M    'P1' 
_symmetry_Int_Tables_number       1 
_symmetry_cell_setting            triclinic 
loop_ 
_symmetry_equiv_pos_as_xyz 
  x,y,z 
_cell_length_a                    52.23996356 
_cell_length_b                    52.31110208785693 
_cell_length_c                    52.449379611861694 
_cell_angle_alpha                 89.88092913079875 
_cell_angle_beta                  89.51204761840192 
_cell_angle_gamma                 89.83403503675258 
loop_ 
_atom_site_label 
_atom_site_type_symbol 
_atom_site_fract_x 
_atom_site_fract_y 
_atom_site_fract_z 
_atom_site_charge 
C1          C  0.06068370  0.67077546  0.93956712     0.79900
N2          N  0.05102930  0.68005793  0.91747414    -0.78400
C3          C  0.06119163  0.70130210  0.90638577     0.82300
N4          N  0.08094833  0.71351013  0.91791451    -0.78400
C5          C  0.09110828  0.70395953  0.93974780     0.82400
N6          N  0.08062753  0.68282933  0.95065641    -0.80100
C7          C  0.86853723  0.67129810  0.93907095     0.79900
N8          N  0.84715385  0.68204503  0.94942646    -0.78400
C9          C  0.83744354  0.70411057  0.93959647     0.82300
N10         N  0.84956690  0.71572283  0.91968436    -0.78400
C11         C  0.87094841  0.70513353  0.90923180     0.82400
N12         N  0.88033419  0.68304443  0.91912423    -0.80100
C13         C  0.86820832  0.67176860  0.13276109     0.79900
N14         N  0.84695172  0.68236185  0.12246435    -0.78400
C15         C  0.83544641  0.70290900  0.13348613     0.82300
N16         N  0.84564578  0.71324159  0.15490684    -0.78400
C17         C  0.86647433  0.70224251  0.16589566     0.82400
N18         N  0.87775003  0.68170732  0.15455039    -0.80100
C19         C  0.05789155  0.67115275  0.13213812     0.79900
N20         N  0.04646271  0.68320215  0.15212607    -0.78400
C21         C  0.05601312  0.70540522  0.16150803     0.82300
N22         N  0.07714265  0.71583997  0.15046736    -0.78400
C23         C  0.08884580  0.70407598  0.13042955     0.82400
N24         N  0.07893024  0.68197320  0.12122681    -0.80100
C25         C  0.86767633  0.37352229  0.13581059     0.79900
N26         N  0.87959765  0.36181185  0.15555522    -0.78400
C27         C  0.87107434  0.33910941  0.16478309     0.82300
N28         N  0.85044059  0.32789060  0.15395849    -0.78400
C29         C  0.83812973  0.33946002  0.13429474     0.82400
N30         N  0.84704451  0.36214649  0.12505242    -0.80100
C31         C  0.86525754  0.37331315  0.94020578     0.79900
N32         N  0.87565776  0.36234225  0.91905335    -0.78400
C33         C  0.86576522  0.34039624  0.90931619     0.82300
N34         N  0.84529636  0.32944223  0.92114468    -0.78400
C35         C  0.83459809  0.34027528  0.94222835     0.82400
N36         N  0.84496745  0.36193854  0.95185222    -0.80100
C37         C  0.05748055  0.36810238  0.94194485     0.79900
N38         N  0.07758713  0.35650131  0.95349047    -0.78400
C39         C  0.08748404  0.33428560  0.94415439     0.82300
N40         N  0.07700954  0.32364853  0.92301621    -0.78400
C41         C  0.05697886  0.33522200  0.91120997     0.82400
N42         N  0.04710988  0.35718803  0.92100073    -0.80100
C43         C  0.05937567  0.36981923  0.13150980     0.79900
N44         N  0.07979483  0.35799512  0.12045772    -0.78400
C45         C  0.08995226  0.33649593  0.13093080     0.82300
N46         N  0.07908933  0.32634928  0.15227926    -0.78400
C47         C  0.05857163  0.33787360  0.16353713     0.82400
N48         N  0.04882993  0.35957568  0.15296322    -0.80100
O49         O  0.01227914  0.56283383  0.08943421    -0.75600
O50         O  0.99334471  0.59281243  0.06394195    -0.54500
C51         C  0.00835442  0.58603518  0.08211199     0.78100
O52         O  0.01440663  0.47621829  0.98671891    -0.60200
O53         O  0.98951202  0.44740767  0.00822302    -0.53300
C54         C  0.00693788  0.45326297  0.99179063     0.70100
O55         O  0.01734101  0.56281228  0.98644014    -0.74800
O56         O  0.99353730  0.59271492  0.00754785    -0.55400
C57         C  0.01084138  0.58613577  0.99120889     0.76100
O58         O  0.01227494  0.47651880  0.08755325    -0.59900
O59         O  0.99104541  0.44740527  0.06328090    -0.53100
C60         C  0.00743128  0.45345375  0.08042958     0.72700
Zr61       Zr  0.99934887  0.52008076  0.07578817     2.54700
O62         O  0.04587665  0.52020390  0.07785518    -0.80500
O63         O  0.99342943  0.51771404  0.12184237    -0.93900
Zr64       Zr  0.00347877  0.51996578  0.99971558     2.64700
O65         O  0.04993699  0.51810850  0.00292029    -0.98900
O66         O  0.00451172  0.52016145  0.95333600    -0.80900
O67         O  0.00266549  0.54470721  0.03769456    -0.84300
O68         O  0.00150574  0.49556650  0.03782073    -2.19000
O69         O  0.91146456  0.48000097  0.08756738    -0.67700
O70         O  0.93441472  0.44976649  0.06583166    -0.52300
C71         C  0.91788994  0.45669130  0.08280054     0.71100
O72         O  0.91471296  0.56511867  0.98451893    -0.60600
O73         O  0.93759785  0.59427419  0.00721499    -0.52600
C74         C  0.92097878  0.58820977  0.99029501     0.72900
O75         O  0.91462201  0.47862157  0.98357059    -0.72000
O76         O  0.93416832  0.44884531  0.00871702    -0.50700
C77         C  0.91867273  0.45544077  0.99092589     0.74300
O78         O  0.91073015  0.56613570  0.08334067    -0.67300
O79         O  0.93655851  0.59495509  0.06297512    -0.54500
C80         C  0.91812501  0.58909300  0.07830517     0.72700
Zr81       Zr  0.92318310  0.52245072  0.07196134     2.77500
O82         O  0.87731844  0.52110139  0.06430526    -0.98100
O83         O  0.91654945  0.52535860  0.11785285    -0.78900
Zr84       Zr  0.92745382  0.52165614  0.99647076     2.70100
O85         O  0.88095317  0.52092688  0.99408855    -0.80100
O86         O  0.93270607  0.52287997  0.95031977    -0.99200
Zr87       Zr  0.96469440  0.56989854  0.03579435     2.21500
Zr88       Zr  0.96247904  0.47224329  0.03649901     2.11100
O89         O  0.92425244  0.49719898  0.03453033    -2.47900
O90         O  0.92544118  0.54697175  0.03398638    -0.79900
O91         O  0.96063283  0.49659762  0.07475391    -0.72100
O92         O  0.96597300  0.54548081  0.99748302    -2.33100
O93         O  0.96192011  0.54587456  0.07436538    -2.29300
O94         O  0.96497770  0.49603410  0.99782633    -0.73900
H95         H  0.01609658  0.48421574  0.03824330     0.78100
H96         H  0.96678067  0.55642239  0.98265094     0.79200
H97         H  0.90927101  0.48648929  0.03417326     0.81400
H98         H  0.96136314  0.55701364  0.08903342     0.79000
H99         H  0.02259382  0.51646853  0.94884852     0.42100
H100        H  0.94319216  0.50760503  0.94624080     0.41000
H101        H  0.87516661  0.53389287  0.00660709     0.40700
H102        H  0.86941692  0.52361454  0.08134303     0.38600
H103        H  0.93066631  0.51513611  0.12520191     0.41800
H104        H  0.98316450  0.53304463  0.12624883     0.36600
H105        H  0.04969051  0.51897676  0.09627534     0.42700
H106        H  0.05446466  0.53319255  0.01330407     0.39100
H107        H  0.87357830  0.53712596  0.05497226     0.44000
H108        H  0.01059080  0.52119732  0.12887642     0.42700
H109        H  0.05340151  0.50330314  0.01417937     0.42900
H110        H  0.91550702  0.51885681  0.94365573     0.43200
C111        C  0.61807090  0.92715439  0.13501606     0.79900
N112        N  0.63036751  0.93709568  0.15534973    -0.78400
C113        C  0.65244147  0.92643329  0.16389571     0.82300
N114        N  0.66207978  0.90531970  0.15216520    -0.78400
C115        C  0.64955871  0.89474806  0.13217380     0.82400
N116        N  0.62777414  0.90596182  0.12354286    -0.80100
C117        C  0.61342183  0.92172463  0.94193062     0.79900
N118        N  0.62427996  0.93236039  0.92087871    -0.78400
C119        C  0.64501690  0.92135538  0.90953666     0.82300
N120        N  0.65531688  0.89983400  0.91986040    -0.78400
C121        C  0.64418065  0.88866094  0.94059217     0.82400
N122        N  0.62340545  0.89988068  0.95164254    -0.80100
C123        C  0.61707034  0.11433579  0.94619675     0.79900
N124        N  0.62786440  0.10431947  0.92481803    -0.78400
C125        C  0.64931588  0.11474364  0.91440444     0.82300
N126        N  0.66029091  0.13525992  0.92577273    -0.78400
C127        C  0.64916110  0.14605432  0.94669372     0.82400
N128        N  0.62769924  0.13534500  0.95695307    -0.80100
C129        C  0.61487936  0.11562732  0.13617866     0.79900
N130        N  0.62560527  0.10473030  0.15712136    -0.78400
C131        C  0.64686844  0.11503218  0.16784209     0.82300
N132        N  0.65765998  0.13615103  0.15721703    -0.78400
C133        C  0.64681853  0.14763353  0.13673140     0.82400
N134        N  0.62558522  0.13713855  0.12622220    -0.80100
C135        C  0.31573488  0.11346369  0.94168333     0.79900
N136        N  0.30445728  0.13387624  0.95321200    -0.78400
C137        C  0.28248718  0.14418530  0.94392921     0.82300
N138        N  0.27176638  0.13385220  0.92285428    -0.78400
C139        C  0.28286960  0.11355757  0.91100120     0.82400
N140        N  0.30464672  0.10317749  0.92070842    -0.80100
C141        C  0.31412223  0.92673474  0.94306313     0.79900
N142        N  0.30323528  0.90536461  0.95300411    -0.78400
C143        C  0.28255094  0.89461353  0.94179365     0.82300
N144        N  0.27232498  0.90583742  0.92083260    -0.78400
C145        C  0.28304313  0.92720499  0.91063474     0.82400
N146        N  0.30407468  0.93747313  0.92176868    -0.80100
C147        C  0.31375709  0.92176307  0.13612247     0.79900
N148        N  0.30089683  0.93334570  0.15553881    -0.78400
C149        C  0.27825271  0.92390197  0.16423215     0.82300
N150        N  0.26830280  0.90272811  0.15315738    -0.78400
C151        C  0.28091996  0.89084911  0.13368636     0.82400
N152        N  0.30350617  0.90070461  0.12503427    -0.80100
C153        C  0.31180679  0.11448800  0.13336027     0.79900
N154        N  0.30072660  0.10412620  0.15445742    -0.78400
C155        C  0.27923377  0.11472453  0.16482190     0.82300
N156        N  0.26857611  0.13558316  0.15354563    -0.78400
C157        C  0.27963014  0.14624728  0.13253410     0.82400
N158        N  0.30125767  0.13559534  0.12259287    -0.80100
O159        O  0.50782683  0.06720882  0.09380417    -0.75600
O160        O  0.53752329  0.04686498  0.06886007    -0.54500
C161        C  0.53109655  0.06228233  0.08694622     0.78100
O162        O  0.42114685  0.96638717  0.08995931    -0.60200
O163        O  0.39190794  0.99045435  0.06840500    -0.53300
C164        C  0.39798700  0.97322652  0.08485256     0.70100
O165        O  0.50804997  0.96826743  0.09157024    -0.74800
O166        O  0.53760706  0.99186183  0.06951634    -0.55400
C167        C  0.53124223  0.97490712  0.08615228     0.76100
O168        O  0.42121008  0.06923226  0.09166376    -0.59900
O169        O  0.39213895  0.04722687  0.06806844    -0.53100
C170        C  0.39812152  0.06363143  0.08523934     0.72700
Zr171      Zr  0.46460639  0.05551188  0.07989727     2.54700
O172        O  0.46322294  0.04909915  0.12587686    -0.80500
O173        O  0.46543096  0.10193973  0.08305335    -0.93900
Zr174      Zr  0.46462875  0.97956731  0.07784265     2.64700
O175        O  0.46205090  0.97908024  0.12419517    -0.98900
O176        O  0.46696443  0.93317497  0.07502378    -0.80900
O177        O  0.48942827  0.01752111  0.07924344    -0.84300
O178        O  0.43981714  0.01763193  0.07914572    -2.19000
O179        O  0.42186778  0.07032616  0.99074552    -0.67700
O180        O  0.39212384  0.04587574  0.01152528    -0.52300
C181        C  0.39864395  0.06315077  0.99520641     0.71100
O182        O  0.50860563  0.96840136  0.98980424    -0.60600
O183        O  0.53800550  0.99053028  0.01288729    -0.52600
C184        C  0.53174774  0.97374099  0.99615203     0.72900
O185        O  0.42204891  0.96972940  0.98828877    -0.72000
O186        O  0.39240698  0.99095666  0.01247714    -0.50700
C187        C  0.39878139  0.97528328  0.99463827     0.74300
O188        O  0.50849346  0.07100080  0.99126265    -0.67300
O189        O  0.53779412  0.04688444  0.01273655    -0.54500
C190        C  0.53163697  0.06449692  0.99676534     0.72700
Zr191      Zr  0.46514255  0.05769538  0.00369598     2.77500
O192        O  0.46447906  0.05634218  0.95731700    -0.98100
O193        O  0.46526512  0.10419981  0.00516550    -0.78900
Zr194      Zr  0.46527282  0.98135978  0.00211715     2.70100
O195        O  0.46674978  0.98163662  0.95572078    -0.80100
O196        O  0.46483748  0.93485330  0.00395576    -0.99200
Zr197      Zr  0.51377839  0.01884001  0.04074044     2.21500
Zr198      Zr  0.41608578  0.01869923  0.04053098     2.02100
O199        O  0.44079970  0.01956753  0.00224025    -2.47900
O200        O  0.48997677  0.01956135  0.00221520    -0.79900
O201        O  0.44017602  0.05727330  0.04177239    -0.72100
O202        O  0.48974911  0.98013401  0.04000012    -2.33100
O203        O  0.48939209  0.05735685  0.04178284    -2.29300
O204        O  0.44003316  0.97989211  0.03992081    -0.73900
H205        H  0.42853721  0.01733802  0.09382714     0.78100
H206        H  0.50090461  0.96537705  0.03987382     0.79200
H207        H  0.42999213  0.01986704  0.98739947     0.81400
H208        H  0.50040917  0.07214832  0.04216034     0.79000
H209        H  0.46157059  0.92924516  0.05742421     0.42100
H210        H  0.44732236  0.93036251  0.00972549     0.41000
H211        H  0.46079636  0.99895345  0.95091004     0.40700
H212        H  0.46914163  0.07387974  0.95192266     0.38600
H213        H  0.45144356  0.10862671  0.01742678     0.41800
H214        H  0.48056089  0.10723247  0.07286403     0.36600
H215        H  0.46842510  0.06574495  0.13309614     0.42700
H216        H  0.46735540  0.96155932  0.12905175     0.39100
H217        H  0.47949377  0.04574354  0.95253231     0.44000
H218        H  0.47020535  0.10541779  0.10094264     0.42700
H219        H  0.47631240  0.99012087  0.12974879     0.42900
H220        H  0.46556236  0.92943390  0.98588849     0.43200
C221        C  0.06351184  0.92430481  0.68607981     0.79900
N222        N  0.05393104  0.90201207  0.69542388    -0.78400
C223        C  0.06422410  0.89088112  0.71648127     0.82300
N224        N  0.08400154  0.90254065  0.72850527    -0.78400
C225        C  0.09394691  0.92469414  0.71918165     0.82400
N226        N  0.08365965  0.93536825  0.69793375    -0.80100
C227        C  0.86779648  0.92377138  0.68847717     0.79900
N228        N  0.84772942  0.93473527  0.70083037    -0.78400
C229        C  0.83846545  0.92462577  0.72285320     0.82300
N230        N  0.84973847  0.90345144  0.73286746    -0.78400
C231        C  0.86976721  0.89211959  0.72049928     0.82400
N232        N  0.87890411  0.90253324  0.69845185    -0.80100
C233        C  0.86777965  0.11663123  0.68919713     0.79900
N234        N  0.87799526  0.13802557  0.69952446    -0.78400
C235        C  0.86823911  0.14825403  0.72138265     0.82300
N236        N  0.84829291  0.13627760  0.73323494    -0.78400
C237        C  0.83800042  0.11472537  0.72305600     0.82400
N238        N  0.84782322  0.10501651  0.70107968    -0.80100
C239        C  0.05697371  0.11322509  0.69140415     0.79900
N240        N  0.07820810  0.10322753  0.70241072    -0.78400
C241        C  0.08747670  0.11296330  0.72452176     0.82300
N242        N  0.07508596  0.13298985  0.73566209    -0.78400
C243        C  0.05405202  0.14343540  0.72455553     0.82400
N244        N  0.04511187  0.13353016  0.70243552    -0.80100
C245        C  0.86630526  0.12021501  0.39137020     0.79900
N246        N  0.87805192  0.14016441  0.37941127    -0.78400
C247        C  0.86931737  0.14904045  0.35665904     0.82300
N248        N  0.84918803  0.13731707  0.34540905    -0.78400
C249        C  0.83703683  0.11759120  0.35720321     0.82400
N250        N  0.84592963  0.10899229  0.37995046    -0.80100
C251        C  0.86924688  0.92279322  0.38999977     0.79900
N252        N  0.87857968  0.90069552  0.38006371    -0.78400
C253        C  0.86745330  0.88988881  0.35936180     0.82300
N254        N  0.84709686  0.90168410  0.34836373    -0.78400
C255        C  0.83727100  0.92351886  0.35851656     0.82400
N256        N  0.84868344  0.93413954  0.37909790    -0.80100
C257        C  0.05722217  0.92235714  0.38804455     0.79900
N258        N  0.07812483  0.93285571  0.37670822    -0.78400
C259        C  0.08851846  0.92243909  0.35530765     0.82300
N260        N  0.07725089  0.90173247  0.34461110    -0.78400
C261        C  0.05643648  0.89077957  0.35589035     0.82400
N262        N  0.04631494  0.90136763  0.37748083    -0.80100
C263        C  0.06009905  0.12086614  0.39065492     0.79900
N264        N  0.04975399  0.14136318  0.37854141    -0.78400
C265        C  0.06030687  0.15039627  0.35655410     0.82300
N266        N  0.08080509  0.13819945  0.34613032    -0.78400
C267        C  0.09152172  0.11780412  0.35808667     0.82400
N268        N  0.08091675  0.10902557  0.38023340    -0.80100
O269        O  0.01559809  0.96979741  0.58009788    -0.75600
O270        O  0.99311283  0.99200323  0.61032727    -0.54500
C271        C  0.00997642  0.97531653  0.60346140     0.78100
O272        O  0.01246366  0.07367133  0.49561294    -0.60200
O273        O  0.98949099  0.05179417  0.46600270    -0.53300
C274        C  0.00605684  0.06872483  0.47246415     0.70100
O275        O  0.01430880  0.07136792  0.58181065    -0.74800
O276        O  0.99237990  0.04745935  0.61111190    -0.55400
C277        C  0.00868750  0.06481546  0.60492054     0.76100
O278        O  0.01327737  0.97084872  0.49367664    -0.59900
O279        O  0.99094901  0.99467660  0.46486952    -0.53100
C280        C  0.00752865  0.97742763  0.47070728     0.72700
Zr281      Zr  0.00176825  0.98302573  0.53737772     2.54700
O282        O  0.04835681  0.98300499  0.53623397    -0.80500
O283        O  0.99974422  0.93657369  0.53550142    -0.93900
Zr284      Zr  0.00111806  0.05921366  0.53865392     2.64700
O285        O  0.04772651  0.05777261  0.53742432    -0.98900
O286        O  0.99973910  0.10569497  0.54006430    -0.80900
O287        O  0.00244027  0.02067899  0.56259597    -0.84300
O288        O  0.00166600  0.02162736  0.51332208    -2.19000
O289        O  0.91461691  0.96830697  0.49600716    -0.67700
O290        O  0.93623551  0.99220240  0.46652869    -0.52300
C291        C  0.92061279  0.97422152  0.47285708     0.71100
O292        O  0.91211576  0.07003414  0.58329049    -0.60600
O293        O  0.93626508  0.04790256  0.61196397    -0.52600
C294        C  0.91899015  0.06444974  0.60616343     0.72900
O295        O  0.91301193  0.07388802  0.49748296    -0.72000
O296        O  0.93308114  0.04971865  0.46705398    -0.50700
C297        C  0.91743490  0.06745782  0.47417208     0.74300
O298        O  0.91173393  0.97121201  0.58216616    -0.67300
O299        O  0.93547399  0.99263471  0.61149486    -0.54500
C300        C  0.91775095  0.97688687  0.60525312     0.72700
Zr301      Zr  0.92575978  0.98244936  0.53894050     2.77500
O302        O  0.87914788  0.98228092  0.53827266    -0.98100
O303        O  0.92850330  0.93596701  0.54045026    -0.78900
Zr304      Zr  0.92471212  0.05837811  0.53990433     2.70100
O305        O  0.87839580  0.05315190  0.53992001    -0.80100
O306        O  0.92157477  0.10473956  0.54283661    -0.99200
Zr307      Zr  0.96409362  0.02000183  0.58737417     2.21500
Zr308      Zr  0.96274126  0.02200219  0.48979325     2.11100
O309        O  0.92431064  0.02084189  0.51462653    -2.47900
O310        O  0.92517443  0.02005495  0.56413170    -0.79900
O311        O  0.96346734  0.98309505  0.51345518    -0.72100
O312        O  0.96317553  0.05897696  0.56376227    -2.33100
O313        O  0.96407112  0.98166036  0.56294174    -2.29300
O314        O  0.96266818  0.06000485  0.51470514    -0.73900
H315        H  0.01630345  0.02194686  0.50193819     0.78100
H316        H  0.96311853  0.07361086  0.57496721     0.79200
H317        H  0.90944038  0.02081381  0.50382688     0.81400
H318        H  0.96427358  0.96680837  0.57391167     0.79000
H319        H  0.98337015  0.11026993  0.53181993     0.42100
H320        H  0.93220892  0.11122454  0.52852711     0.41000
H321        H  0.87197970  0.06683976  0.52856328     0.40700
H322        H  0.87451611  0.99345669  0.52376115     0.38600
H323        H  0.93379863  0.93179500  0.55805832     0.41800
H324        H  0.98671951  0.93171666  0.54842366     0.36600
H325        H  0.05309094  0.96554887  0.53060466     0.42700
H326        H  0.05200188  0.04370510  0.52551497     0.39100
H327        H  0.87460799  0.96483482  0.53261983     0.44000
H328        H  0.01621118  0.93065447  0.54264869     0.42700
H329        H  0.05287574  0.07350849  0.52822089     0.42900
H330        H  0.90375036  0.10874949  0.53789515     0.43200
C331        C  0.94123040  0.29595194  0.23599110    -0.11200
C332        C  0.96445740  0.30622502  0.22760423    -0.05100
C333        C  0.98792848  0.29753670  0.23681162    -0.11200
C334        C  0.98830317  0.27779562  0.25531447     0.09800
C335        C  0.96483597  0.26694394  0.26395419    -0.03000
C336        C  0.94117140  0.27613601  0.25437599     0.09600
C337        C  0.91821779  0.26519228  0.26329165    -0.13000
C338        C  0.91846757  0.24504326  0.28080053    -0.13000
C339        C  0.94168270  0.23509918  0.28990443     0.09600
C340        C  0.96508734  0.24631478  0.28160241    -0.03000
C341        C  0.01144780  0.26851373  0.26525207    -0.13100
C342        C  0.01169774  0.24814343  0.28241817    -0.13100
C343        C  0.98879010  0.23652575  0.29045427     0.09800
C344        C  0.98889563  0.21499575  0.30675348    -0.11200
C345        C  0.96579534  0.20412182  0.31463235    -0.05100
C346        C  0.94229494  0.21383812  0.30665852    -0.11200
H347        H  0.89987459  0.27205886  0.25663924     0.07000
H348        H  0.90032673  0.23702556  0.28688259     0.07000
H349        H  0.02960537  0.27680733  0.25964581     0.07200
H350        H  0.03003612  0.24134099  0.28915249     0.07200
H351        H  0.96428166  0.32060162  0.21264658     0.03600
H352        H  0.96612167  0.18760293  0.32719598     0.03600
C353        C  0.22929115  0.04299766  0.23014519    -0.11200
C354        C  0.23815832  0.01968146  0.22055975    -0.05100
C355        C  0.22891846  0.99637630  0.22969416    -0.11200
C356        C  0.20999832  0.99610958  0.24908472     0.09800
C357        C  0.20106505  0.01961873  0.25942882    -0.03000
C358        C  0.21074823  0.04319906  0.24996195     0.09600
C359        C  0.20176072  0.06619747  0.26060765    -0.13000
C360        C  0.18341881  0.06610722  0.28009103    -0.13000
C361        C  0.17345656  0.04301288  0.28961243     0.09600
C362        C  0.18242505  0.01952692  0.27927661    -0.03000
C363        C  0.20013681  0.97302678  0.25866346    -0.13100
C364        C  0.18183017  0.97294340  0.27812914    -0.13100
C365        C  0.17262992  0.99594025  0.28859543     0.09800
C366        C  0.15384261  0.99605301  0.30816627    -0.11200
C367        C  0.14550493  0.01931496  0.31834207    -0.05100
C368        C  0.15467302  0.04267348  0.30919033    -0.11200
H369        H  0.20892295  0.08445616  0.25396652     0.07000
H370        H  0.17712835  0.08430879  0.28771959     0.07000
H371        H  0.20667366  0.95480468  0.25129665     0.07200
H372        H  0.17499374  0.95465207  0.28500849     0.07200
H373        H  0.25235315  0.01966408  0.20531864     0.03600
H374        H  0.13072643  0.01927526  0.33302107     0.03600
C375        C  0.15904576  0.29000059  0.01342064    -0.11200
C376        C  0.14909976  0.29854305  0.03668072    -0.05100
C377        C  0.15833027  0.28960385  0.05990415    -0.11200
C378        C  0.17878624  0.27192256  0.06024085     0.09800
C379        C  0.18902664  0.26269097  0.03680459    -0.03000
C380        C  0.17897922  0.27155450  0.01324749     0.09600
C381        C  0.18925767  0.26191113  0.99034926    -0.13000
C382        C  0.20890049  0.24371660  0.99051806    -0.13000
C383        C  0.21901494  0.23458280  0.01359479     0.09600
C384        C  0.20912014  0.24433417  0.03697359    -0.03000
C385        C  0.18911176  0.26318389  0.08330753    -0.13100
C386        C  0.20896302  0.24535865  0.08346879    -0.13100
C387        C  0.21899826  0.23546836  0.06057361     0.09800
C388        C  0.23867140  0.21688241  0.06061927    -0.11200
C389        C  0.24824063  0.20760259  0.03751592    -0.05100
C390        C  0.23887305  0.21605734  0.01408740    -0.11200
H391        H  0.18221072  0.26844685  0.97210522     0.07000
H392        H  0.21625922  0.23699123  0.97237419     0.07000
H393        H  0.18188399  0.27010749  0.10143669     0.07200
H394        H  0.21637122  0.23932711  0.10173841     0.07200
H395        H  0.13325378  0.31202540  0.03671322     0.03600
H396        H  0.26268557  0.19264241  0.03780370     0.03600
C397        C  0.69758791  0.04291994  0.23194218    -0.11200
C398        C  0.68892273  0.01949912  0.22277103    -0.05100
C399        C  0.69819024  0.99633438  0.23219183    -0.11200
C400        C  0.71665471  0.99628637  0.25164828     0.09800
C401        C  0.72593658  0.01991524  0.26106351    -0.03000
C402        C  0.71634497  0.04338512  0.25124831     0.09600
C403        C  0.72576471  0.06651517  0.26094351    -0.13000
C404        C  0.74472479  0.06664691  0.27953633    -0.13000
C405        C  0.75476308  0.04365312  0.28918195     0.09600
C406        C  0.74502882  0.02004141  0.28013874    -0.03000
C407        C  0.72582314  0.97330438  0.26208362    -0.13100
C408        C  0.74425863  0.97343588  0.28110206    -0.13100
C409        C  0.75448948  0.99653370  0.28999940     0.09800
C410        C  0.77399317  0.99686410  0.30851337    -0.11200
C411        C  0.78350689  0.02023567  0.31696324    -0.05100
C412        C  0.77432969  0.04348975  0.30765614    -0.11200
H413        H  0.71865111  0.08469829  0.25405745     0.07000
H414        H  0.75154215  0.08493071  0.28627583     0.07000
H415        H  0.71872360  0.95501207  0.25565822     0.07200
H416        H  0.75064016  0.95523945  0.28862099     0.07200
H417        H  0.67492984  0.01928638  0.20758082     0.03600
H418        H  0.79873579  0.02033333  0.33092341     0.03600
C419        C  0.98445210  0.74772265  0.23245811    -0.11200
C420        C  0.96107296  0.73847754  0.22372222    -0.05100
C421        C  0.93774918  0.74710623  0.23373583    -0.11200
C422        C  0.93765168  0.76514421  0.25376250     0.09800
C423        C  0.96125692  0.77521015  0.26245839    -0.03000
C424        C  0.98477109  0.76646690  0.25179941     0.09600
C425        C  0.00789153  0.77657334  0.26082192    -0.13000
C426        C  0.00794832  0.79548523  0.27950174    -0.13000
C427        C  0.98489374  0.80491772  0.28979810     0.09600
C428        C  0.96131932  0.79441007  0.28150693    -0.03000
C429        C  0.91467605  0.77350318  0.26512678    -0.13100
C430        C  0.91474574  0.79220227  0.28400577    -0.13100
C431        C  0.93777728  0.80329671  0.29200647     0.09800
C432        C  0.93800661  0.82316273  0.31019763    -0.11200
C433        C  0.96130014  0.83334906  0.31799574    -0.05100
C434        C  0.98462785  0.82458316  0.30824100    -0.11200
H435        H  0.02615449  0.76997079  0.25344181     0.07000
H436        H  0.02622246  0.80277343  0.28574845     0.07000
H437        H  0.89643831  0.76574989  0.25933608     0.07200
H438        H  0.89655362  0.79815219  0.29209307     0.07200
H439        H  0.96102475  0.72479373  0.20818752     0.03600
H440        H  0.96125889  0.84883058  0.33175834     0.03600
C441        C  0.23979563  0.99814418  0.84013942    -0.11200
C442        C  0.24798298  0.02165757  0.84948524    -0.05100
C443        C  0.23749137  0.04467429  0.84107183    -0.11200
C444        C  0.21845001  0.04446488  0.82208322     0.09800
C445        C  0.20970449  0.02068549  0.81242935    -0.03000
C446        C  0.22036511  0.99740562  0.82151932     0.09600
C447        C  0.21138761  0.97411595  0.81173354    -0.13000
C448        C  0.19187141  0.97359770  0.79374399    -0.13000
C449        C  0.18078181  0.99635684  0.78477030     0.09600
C450        C  0.18996387  0.02017071  0.79398335    -0.03000
C451        C  0.20790645  0.06725883  0.81261386    -0.13100
C452        C  0.18884584  0.06678334  0.79417262    -0.13100
C453        C  0.17935974  0.04348079  0.78488318     0.09800
C454        C  0.15966278  0.04276793  0.76656514    -0.11200
C455        C  0.15068190  0.01920521  0.75799952    -0.05100
C456        C  0.16091584  0.99609319  0.76659635    -0.11200
H457        H  0.21942476  0.95606790  0.81792020     0.07000
H458        H  0.18556686  0.95519312  0.78683311     0.07000
H459        H  0.21443308  0.08565205  0.81936005     0.07200
H460        H  0.18154470  0.08488609  0.78729924     0.07200
H461        H  0.26213783  0.02200757  0.86452419     0.03600
H462        H  0.13512180  0.01883405  0.74441535     0.03600
C463        C  0.93773098  0.29490889  0.84073527    -0.11200
C464        C  0.96091567  0.30204577  0.85168228    -0.05100
C465        C  0.98422230  0.29172341  0.84352230    -0.11200
C466        C  0.98465809  0.27363781  0.82353256     0.09800
C467        C  0.96126244  0.26608390  0.81216652    -0.03000
C468        C  0.93768266  0.27671354  0.82081055     0.09600
C469        C  0.91482423  0.26910678  0.80913732    -0.13000
C470        C  0.91498706  0.25099406  0.78966501    -0.13000
C471        C  0.93800077  0.23976058  0.78120786     0.09600
C472        C  0.96142604  0.24765190  0.79231902    -0.03000
C473        C  0.00775052  0.26287885  0.81470517    -0.13100
C474        C  0.00789927  0.24468620  0.79530970    -0.13100
C475        C  0.98497069  0.23672621  0.78401636     0.09800
C476        C  0.98486761  0.21799419  0.76467645    -0.11200
C477        C  0.96175515  0.21054267  0.75390064    -0.05100
C478        C  0.93833010  0.22086916  0.76187665    -0.11200
H479        H  0.89659582  0.27722388  0.81489323     0.07000
H480        H  0.89688466  0.24596575  0.78116615     0.07000
H481        H  0.02589213  0.26838816  0.82284041     0.07200
H482        H  0.02615310  0.23687485  0.78918614     0.07200
H483        H  0.96077496  0.31557733  0.86735046     0.03600
H484        H  0.96192898  0.19533104  0.73984949     0.03600
C485        C  0.15535913  0.75296134  0.01200209    -0.11200
C486        C  0.14659172  0.74298794  0.03514418    -0.05100
C487        C  0.15599955  0.75147760  0.05843327    -0.11200
C488        C  0.17542884  0.77019587  0.05886944     0.09800
C489        C  0.18467707  0.78053886  0.03550151    -0.03000
C490        C  0.17460985  0.77192117  0.01193072     0.09600
C491        C  0.18415473  0.78231728  0.98905830    -0.13000
C492        C  0.20316270  0.80097397  0.98926277    -0.13000
C493        C  0.21310691  0.81004749  0.01235616     0.09600
C494        C  0.20387438  0.79967085  0.03572279    -0.03000
C495        C  0.18577460  0.77881670  0.08194615    -0.13100
C496        C  0.20460631  0.79763858  0.08216589    -0.13100
C497        C  0.21374532  0.80845189  0.05931569     0.09800
C498        C  0.23259274  0.82779880  0.05930512    -0.11200
C499        C  0.24155672  0.83761793  0.03617936    -0.05100
C500        C  0.23217431  0.82916449  0.01283735    -0.11200
H501        H  0.17706045  0.77597982  0.97080333     0.07000
H502        H  0.21003142  0.80825604  0.97113336     0.07000
H503        H  0.17933341  0.77105020  0.10003524     0.07200
H504        H  0.21197986  0.80368098  0.10040991     0.07200
H505        H  0.13142735  0.72883413  0.03505419     0.03600
H506        H  0.25582959  0.85266536  0.03636691     0.03600
C507        C  0.77181609  0.29023959  0.01663809    -0.11200
C508        C  0.78137578  0.29930817  0.03966066    -0.05100
C509        C  0.77272497  0.28995592  0.06308835    -0.11200
C510        C  0.75347571  0.27101778  0.06382342     0.09800
C511        C  0.74344753  0.26156309  0.04057516    -0.03000
C512        C  0.75254688  0.27128433  0.01685191     0.09600
C513        C  0.74218803  0.26182154  0.99411424    -0.13000
C514        C  0.72370776  0.24262515  0.99456380    -0.13000
C515        C  0.71479558  0.23239406  0.01777456     0.09600
C516        C  0.72449090  0.24216382  0.04104486    -0.03000
C517        C  0.74404145  0.26131851  0.08705550    -0.13100
C518        C  0.72521225  0.24246173  0.08752446    -0.13100
C519        C  0.71542208  0.23241633  0.06477616     0.09800
C520        C  0.69673058  0.21288386  0.06497402    -0.11200
C521        C  0.68757717  0.20344362  0.04190657    -0.05100
C522        C  0.69638926  0.21262804  0.01845704    -0.11200
H523        H  0.74844962  0.26910372  0.97576730     0.07000
H524        H  0.71643442  0.23581009  0.97655155     0.07000
H525        H  0.75114006  0.26832088  0.10506742     0.07200
H526        H  0.71845209  0.23569189  0.10589195     0.07200
H527        H  0.79645495  0.31355451  0.03932727     0.03600
H528        H  0.67364095  0.18808182  0.04220573     0.03600
C529        C  0.98989861  0.74639487  0.83792385    -0.11200
C530        C  0.96642025  0.73840243  0.84794858    -0.05100
C531        C  0.94321979  0.74815511  0.83912111    -0.11200
C532        C  0.94333388  0.76689244  0.81965834     0.09800
C533        C  0.96707534  0.77517209  0.80908460    -0.03000
C534        C  0.99045777  0.76469930  0.81804100     0.09600
C535        C  0.01367378  0.77302701  0.80715438    -0.13000
C536        C  0.01404619  0.79206287  0.78847425    -0.13000
C537        C  0.99119618  0.80323012  0.77986589     0.09600
C538        C  0.96745690  0.79436324  0.78990782    -0.03000
C539        C  0.92045511  0.77743968  0.81041853    -0.13100
C540        C  0.92083649  0.79629280  0.79162373    -0.13100
C541        C  0.94410945  0.80521473  0.78137549     0.09800
C542        C  0.94471380  0.82530161  0.76333650    -0.11200
C543        C  0.96813817  0.83370832  0.75353245    -0.05100
C544        C  0.99132585  0.82326260  0.76166270    -0.11200
H545        H  0.03177203  0.76506838  0.81326130     0.07000
H546        H  0.03240558  0.79811216  0.78090696     0.07000
H547        H  0.90204673  0.77126449  0.81773731     0.07200
H548        H  0.90271035  0.80404163  0.78533562     0.07200
H549        H  0.96621328  0.72469316  0.86352139     0.03600
H550        H  0.96837147  0.84947803  0.74004565     0.03600
C551        C  0.69544983  0.04193803  0.84773662    -0.11200
C552        C  0.68623155  0.01858313  0.85679011    -0.05100
C553        C  0.69470216  0.99535468  0.84667327    -0.11200
C554        C  0.71292978  0.99529268  0.82659196     0.09800
C555        C  0.72234089  0.01893207  0.81700187    -0.03000
C556        C  0.71350736  0.04237010  0.82753755     0.09600
C557        C  0.72295596  0.06552923  0.81766341    -0.13000
C558        C  0.74111890  0.06571743  0.79803580    -0.13000
C559        C  0.75040052  0.04275533  0.78758364     0.09600
C560        C  0.74084159  0.01913194  0.79704436    -0.03000
C561        C  0.72200524  0.97234334  0.81592851    -0.13100
C562        C  0.74043527  0.97253497  0.79656023    -0.13100
C563        C  0.75019657  0.99569079  0.78699874     0.09800
C564        C  0.76908276  0.99608660  0.76758816    -0.11200
C565        C  0.77793458  0.01946684  0.75814947    -0.05100
C566        C  0.76910553  0.04269929  0.76795807    -0.11200
H567        H  0.71640357  0.08371073  0.82512095     0.07000
H568        H  0.74785966  0.08402294  0.79107839     0.07000
H569        H  0.71502329  0.95403388  0.82261857     0.07200
H570        H  0.74692127  0.95435735  0.78903334     0.07200
H571        H  0.67250821  0.01846775  0.87245245     0.03600
H572        H  0.79290904  0.01957143  0.74367025     0.03600
C573        C  0.77164948  0.75037049  0.05958669    -0.11200
C574        C  0.78167739  0.74201153  0.03627355    -0.05100
C575        C  0.77205024  0.75084809  0.01314342    -0.11200
C576        C  0.75132636  0.76817470  0.01301606     0.09800
C577        C  0.74132358  0.77738323  0.03651308    -0.03000
C578        C  0.75138919  0.76836426  0.05994807     0.09600
C579        C  0.74104258  0.77764536  0.08297303    -0.13000
C580        C  0.72181143  0.79620581  0.08299620    -0.13000
C581        C  0.71216248  0.80595517  0.05999970     0.09600
C582        C  0.72157495  0.79602035  0.03653294    -0.03000
C583        C  0.74070606  0.77683272  0.99003522    -0.13100
C584        C  0.72107123  0.79485643  0.99006111    -0.13100
C585        C  0.71165622  0.80508439  0.01304476     0.09800
C586        C  0.69268160  0.82433746  0.01323636    -0.11200
C587        C  0.68383853  0.83409219  0.03642561    -0.05100
C588        C  0.69338842  0.82548122  0.05968647    -0.11200
H589        H  0.74799081  0.77084735  0.10116062     0.07000
H590        H  0.71463227  0.80299918  0.10119038     0.07000
H591        H  0.74768308  0.76987437  0.97182476     0.07200
H592        H  0.71355812  0.80100415  0.97187372     0.07200
H593        H  0.79764389  0.72868146  0.03612895     0.03600
H594        H  0.66976325  0.84940606  0.03632798     0.03600
C595        C  0.04711319  0.17073695  0.34218104    -0.06500
C596        C  0.04108272  0.16605114  0.31658239    -0.17600
C597        C  0.02365116  0.18157308  0.30358032     0.10700
C598        C  0.01247494  0.20269389  0.31625474    -0.06400
C599        C  0.02015493  0.20860296  0.34109364    -0.17600
C600        C  0.03734559  0.19289760  0.35417213     0.10800
S601        S  0.01431322  0.17152189  0.27208976    -0.32600
S602        S  0.04518784  0.20154901  0.38642852    -0.32600
H603        H  0.06956383  0.19005450  0.38629695     0.28800
H604        H  0.00482134  0.19512592  0.26362385     0.28800
H605        H  0.04842880  0.14903843  0.30725392     0.19400
H606        H  0.01147908  0.22470063  0.35090627     0.19400
C607        C  0.14227497  0.06595462  0.31962397    -0.06500
C608        C  0.14696960  0.07248596  0.34509821    -0.17600
C609        C  0.13205983  0.09090746  0.35768532     0.10700
C610        C  0.11151707  0.10266340  0.34477492    -0.06400
C611        C  0.10817497  0.09755614  0.31872629    -0.17600
C612        C  0.12306022  0.07918559  0.30610405     0.10800
S613        S  0.14032485  0.09865090  0.39002636    -0.32600
S614        S  0.11543311  0.07265867  0.27323552    -0.32600
H615        H  0.12197802  0.04661186  0.27319732     0.28800
H616        H  0.13121112  0.12396707  0.38907034     0.28800
H617        H  0.16187048  0.06256133  0.35546734     0.19400
H618        H  0.09265752  0.10664263  0.30849910     0.19400
C619        C  0.04652547  0.10941050  0.41285159    -0.06500
C620        C  0.01986926  0.10617745  0.41141006    -0.17600
C621        C  0.00610690  0.09328035  0.43062637     0.10700
C622        C  0.01926323  0.08326889  0.45188513    -0.06400
C623        C  0.04575853  0.08735286  0.45375557    -0.17600
C624        C  0.05942035  0.10040061  0.43467543     0.10800
S625        S  0.97172625  0.09051595  0.42814657    -0.32600
S626        S  0.09303709  0.10568791  0.43982067    -0.32600
H627        H  0.09405725  0.12928316  0.42694200     0.28800
H628        H  0.96897988  0.10486097  0.40561653     0.28800
H629        H  0.00988583  0.11325581  0.39481158     0.19400
H630        H  0.05597207  0.08018860  0.47020605     0.19400
C631        C  0.10961991  0.93595703  0.34208405    -0.06500
C632        C  0.10743484  0.94076268  0.31584841    -0.17600
C633        C  0.12269037  0.95920854  0.30374100     0.10700
C634        C  0.14109799  0.97268184  0.31803496    -0.06400
C635        C  0.14484524  0.96610566  0.34368503    -0.17600
C636        C  0.12958925  0.94769454  0.35572633     0.10800
S637        S  0.11635619  0.96573059  0.27057230    -0.32600
S638        S  0.13629348  0.94021453  0.38859053    -0.32600
H639        H  0.12718908  0.91494588  0.38752158     0.28800
H640        H  0.12193225  0.99196652  0.27110208     0.28800
H641        H  0.09232070  0.93168945  0.30514415     0.19400
H642        H  0.15920190  0.97606890  0.35464053     0.19400
C643        C  0.00782458  0.83728430  0.31813029    -0.06500
C644        C  0.01338284  0.83388863  0.34402112    -0.17600
C645        C  0.03066130  0.84979802  0.35648062     0.10700
C646        C  0.04275322  0.86980201  0.34287058    -0.06400
C647        C  0.03899026  0.87166029  0.31640182    -0.17600
C648        C  0.02127165  0.85602442  0.30400595     0.10800
S649        S  0.03603747  0.84372740  0.38980709    -0.32600
S650        S  0.01524083  0.86239321  0.27076468    -0.32600
H651        H  0.98881026  0.85751228  0.27160874     0.28800
H652        H  0.06145929  0.85251334  0.38963179     0.28800
H653        H  0.00318034  0.81946066  0.35491558     0.19400
H654        H  0.04824192  0.88681217  0.30566551     0.19400
C655        C  0.02082588  0.96381371  0.44958283    -0.06500
C656        C  0.02517985  0.93737568  0.45196015    -0.17600
C657        C  0.03726817  0.92334973  0.43251646     0.10700
C658        C  0.04486741  0.93580195  0.40976102    -0.06400
C659        C  0.04070780  0.96224627  0.40746743    -0.17600
C660        C  0.02912485  0.97637435  0.42707830     0.10800
S661        S  0.04338663  0.88999539  0.43853921    -0.32600
S662        S  0.02665744  0.01048738  0.42254985    -0.32600
H663        H  0.03262455  0.01668002  0.44790419     0.28800
H664        H  0.06643057  0.88886979  0.42453672     0.28800
H665        H  0.01916950  0.92751995  0.46918679     0.19400
H666        H  0.04672506  0.97208919  0.39023248     0.19400
C667        C  0.78584835  0.97361133  0.31959380    -0.06500
C668        C  0.78297648  0.96970753  0.34593564    -0.17600
C669        C  0.79807708  0.95193961  0.35890463     0.10700
C670        C  0.81669975  0.93767231  0.34533295    -0.06400
C671        C  0.81795197  0.93989436  0.31864257    -0.17600
C672        C  0.80312575  0.95801970  0.30568340     0.10800
S673        S  0.79306347  0.94887769  0.39284086    -0.32600
S674        S  0.80869409  0.96150138  0.27184122    -0.32600
H675        H  0.80476848  0.98805125  0.27065082     0.28800
H676        H  0.80002726  0.92290339  0.39406146     0.28800
H677        H  0.76963779  0.98149722  0.35667432     0.19400
H678        H  0.83209585  0.92898586  0.30800466     0.19400
C679        C  0.91470683  0.83517317  0.32114699    -0.06500
C680        C  0.91069961  0.83299890  0.34754143    -0.17600
C681        C  0.89339827  0.84896102  0.36033779     0.10700
C682        C  0.88005792  0.86796142  0.34655907    -0.06400
C683        C  0.88206758  0.86826255  0.31980762    -0.17600
C684        C  0.89949010  0.85236769  0.30699395     0.10800
S685        S  0.88964787  0.84444417  0.39425961    -0.32600
S686        S  0.90274373  0.85647658  0.27294322    -0.32600
H687        H  0.92942707  0.85317784  0.27176804     0.28800
H688        H  0.86418010  0.85322808  0.39537214     0.28800
H689        H  0.92209798  0.81957628  0.35842892     0.19400
H690        H  0.87169971  0.88249684  0.30893006     0.19400
C691        C  0.88292045  0.93573759  0.41082170    -0.06500
C692        C  0.88805997  0.92226316  0.43335782    -0.17600
C693        C  0.90073785  0.93393034  0.45373430     0.10700
C694        C  0.90827882  0.95990894  0.45176909    -0.06400
C695        C  0.90376831  0.97294547  0.42878779    -0.17600
C696        C  0.89127417  0.96128605  0.40846756     0.10800
S697        S  0.90783362  0.91413475  0.48094469    -0.32600
S698        S  0.88735484  0.97992969  0.37977890    -0.32600
H699        H  0.89137809  0.95944308  0.36287199     0.28800
H700        H  0.93260821  0.92402425  0.48424654     0.28800
H701        H  0.88221724  0.90246066  0.43506232     0.19400
H702        H  0.91012606  0.99249159  0.42649267     0.19400
C703        C  0.88416458  0.16838573  0.34228836    -0.06500
C704        C  0.89371534  0.16154545  0.31815580    -0.17600
C705        C  0.91127339  0.17704775  0.30511544     0.10700
C706        C  0.91919153  0.20030482  0.31613173    -0.06400
C707        C  0.90856831  0.20786153  0.33961157    -0.17600
C708        C  0.89110199  0.19223031  0.35275525     0.10800
S709        S  0.92466727  0.16485279  0.27571601    -0.32600
S710        S  0.87880767  0.20359382  0.38289626    -0.32600
H711        H  0.85576839  0.18979604  0.38229382     0.28800
H712        H  0.93196241  0.18851380  0.26532421     0.28800
H713        H  0.88859599  0.14324031  0.31002546     0.19400
H714        H  0.91485509  0.22551299  0.34831188     0.19400
C715        C  0.81713503  0.10289632  0.34355301    -0.06500
C716        C  0.82074502  0.09817122  0.31737030    -0.17600
C717        C  0.80607356  0.07994921  0.30454346     0.10700
C718        C  0.78653292  0.06679304  0.31791589    -0.06400
C719        C  0.78161704  0.07294290  0.34351250    -0.17600
C720        C  0.79654890  0.09081629  0.35641653     0.10800
S721        S  0.81460726  0.07337710  0.27173829    -0.32600
S722        S  0.78857780  0.09689648  0.38936085    -0.32600
H723        H  0.79658866  0.12254333  0.38902757     0.28800
H724        H  0.80562191  0.04816237  0.27052142     0.28800
H725        H  0.83641756  0.10728174  0.30722200     0.19400
H726        H  0.76668090  0.06285378  0.35385244     0.19400
C727        C  0.90301463  0.08117139  0.45417054    -0.06500
C728        C  0.90616212  0.10764902  0.45130004    -0.17600
C729        C  0.89356243  0.12123998  0.43194111     0.10700
C730        C  0.87777219  0.10804663  0.41446397    -0.06400
C731        C  0.87397757  0.08165171  0.41819922    -0.17600
C732        C  0.88604472  0.06829721  0.43789369     0.10800
S733        S  0.89781884  0.15537476  0.43133082    -0.32600
S734        S  0.87848806  0.03490807  0.44158003    -0.32600
H735        H  0.88051522  0.03438878  0.46827737     0.28800
H736        H  0.87214284  0.16059822  0.42524552     0.28800
H737        H  0.91861299  0.11781247  0.46420700     0.19400
H738        H  0.86174538  0.07105816  0.40544703     0.19400
C739        C  0.03974339  0.16433081  0.73704546    -0.06500
C740        C  0.03519407  0.18679037  0.72311733    -0.17600
C741        C  0.01917732  0.20604259  0.73274701     0.10700
C742        C  0.00771792  0.20301062  0.75702595    -0.06400
C743        C  0.01339838  0.18123342  0.77153449    -0.17600
C744        C  0.02860904  0.16156257  0.76155094     0.10800
S745        S  0.01249731  0.23304388  0.71241027    -0.32600
S746        S  0.02992772  0.13224299  0.77958387    -0.32600
H747        H  0.02946224  0.11582437  0.75839866     0.28800
H748        H  0.00506461  0.24988111  0.73198196     0.28800
H749        H  0.04341354  0.18891246  0.70418753     0.19400
H750        H  0.00380910  0.17840319  0.78973430     0.19400
C751        C  0.10990405  0.10026173  0.73661781    -0.06500
C752        C  0.12770012  0.08792404  0.72050793    -0.17600
C753        C  0.14620139  0.07123813  0.73018173     0.10700
C754        C  0.14657234  0.06586184  0.75654435    -0.06400
C755        C  0.13029266  0.07956750  0.77290170    -0.17600
C756        C  0.11252430  0.09716997  0.76336314     0.10800
S757        S  0.16793381  0.05625815  0.70781202    -0.32600
S758        S  0.09267508  0.11321078  0.78644131    -0.32600
H759        H  0.09955339  0.13769205  0.77762899     0.28800
H760        H  0.18737437  0.05109915  0.72550439     0.28800
H761        H  0.12669751  0.09064405  0.70005006     0.19400
H762        H  0.13059344  0.07561699  0.79319541     0.19400
C763        C  0.04539607  0.10065869  0.66900850    -0.06500
C764        C  0.03721582  0.11569458  0.64839442    -0.17600
C765        C  0.02539664  0.10467894  0.62714219     0.10700
C766        C  0.02182425  0.07787298  0.62621211    -0.06400
C767        C  0.03001479  0.06294032  0.64688739    -0.17600
C768        C  0.04145504  0.07395214  0.66821220     0.10800
S769        S  0.01431057  0.12604303  0.60255940    -0.32600
S770        S  0.04920942  0.05297617  0.69436661    -0.32600
H771        H  0.04081341  0.06989297  0.71353332     0.28800
H772        H  0.99161249  0.11263126  0.59762256     0.28800
H773        H  0.03979286  0.13623549  0.64898283     0.19400
H774        H  0.02707105  0.04246376  0.64663553     0.19400
C775        C  0.91493654  0.20860416  0.75152383    -0.06500
C776        C  0.89946267  0.19433358  0.76820865    -0.17600
C777        C  0.88200832  0.17620491  0.75908231     0.10700
C778        C  0.88097799  0.17117635  0.73252288    -0.06400
C779        C  0.89479248  0.18729334  0.71586699    -0.17600
C780        C  0.91122752  0.20616923  0.72501915     0.10800
S781        S  0.86295757  0.15881830  0.78207875    -0.32600
S782        S  0.92807545  0.22561788  0.70192148    -0.32600
H783        H  0.93359087  0.24581183  0.71864834     0.28800
H784        H  0.86713981  0.17525326  0.80282628     0.28800
H785        H  0.90231474  0.19618055  0.78854772     0.19400
H786        H  0.89340889  0.18469797  0.69543219     0.19400
C787        C  0.81818611  0.10004460  0.73686445    -0.06500
C788        C  0.79555730  0.09375802  0.72408324    -0.17600
C789        C  0.77774112  0.07685421  0.73490748     0.10700
C790        C  0.78256346  0.06599588  0.75905003    -0.06400
C791        C  0.80447898  0.07331187  0.77237285    -0.17600
C792        C  0.82262145  0.08961637  0.76131436     0.10800
S793        S  0.75009480  0.06849481  0.71640541    -0.32600
S794        S  0.85244519  0.09332837  0.77789358    -0.32600
H795        H  0.86813259  0.09214130  0.75599655     0.28800
H796        H  0.73430408  0.06237439  0.73737051     0.28800
H797        H  0.79218773  0.10137023  0.70516339     0.19400
H798        H  0.80865979  0.06432148  0.79051547     0.19400
C799        C  0.90619013  0.07833910  0.62726028    -0.06500
C800        C  0.87957683  0.08222093  0.62634990    -0.17600
C801        C  0.86655074  0.09520771  0.64590274     0.10700
C802        C  0.88033001  0.10437566  0.66704946    -0.06400
C803        C  0.90691011  0.10070318  0.66782924    -0.17600
C804        C  0.91996440  0.08803237  0.64820760     0.10800
S805        S  0.83257033  0.10008704  0.64239409    -0.32600
S806        S  0.95430065  0.08583613  0.65065155    -0.32600
H807        H  0.95890411  0.09083841  0.62467145     0.28800
H808        H  0.83179863  0.12390934  0.65477359     0.28800
H809        H  0.86883847  0.07506512  0.61029049     0.19400
H810        H  0.91764065  0.10769849  0.68396849     0.19400
C811        C  0.88440146  0.87149330  0.73300354    -0.06500
C812        C  0.89279335  0.87569775  0.75797314    -0.17600
C813        C  0.91147734  0.86011621  0.76902589     0.10700
C814        C  0.92156203  0.83926885  0.75501938    -0.06400
C815        C  0.91199076  0.83407691  0.73067330    -0.17600
C816        C  0.89348363  0.84987264  0.71957172     0.10800
S817        S  0.92345683  0.87001554  0.79968055    -0.32600
S818        S  0.88264790  0.84174515  0.68808977    -0.32600
H819        H  0.85833032  0.85309337  0.69073052     0.28800
H820        H  0.93545797  0.84724343  0.80697872     0.28800
H821        H  0.88618712  0.89242556  0.76828134     0.19400
H822        H  0.91974601  0.81816389  0.71985508     0.19400
C823        C  0.81781325  0.93840472  0.73648534    -0.06500
C824        C  0.79711395  0.94758512  0.72216584    -0.17600
C825        C  0.77928323  0.96461551  0.73268131     0.10700
C826        C  0.78214653  0.97280151  0.75807632    -0.06400
C827        C  0.80167483  0.96224272  0.77299861    -0.17600
C828        C  0.81973643  0.94543027  0.76241881     0.10800
S829        S  0.75429076  0.97660080  0.71233429    -0.32600
S830        S  0.84638189  0.93631847  0.78208672    -0.32600
H831        H  0.86509728  0.94145322  0.76332087     0.28800
H832        H  0.73695662  0.98271104  0.73207189     0.28800
H833        H  0.79541176  0.94224618  0.70229405     0.19400
H834        H  0.80416808  0.96887660  0.79238438     0.19400
C835        C  0.87934228  0.93696332  0.66632112    -0.06500
C836        C  0.88431331  0.96321850  0.66848059    -0.17600
C837        C  0.89594565  0.97687428  0.64862025     0.10700
C838        C  0.90352027  0.96396249  0.62610504    -0.06400
C839        C  0.89799593  0.93779525  0.62372767    -0.17600
C840        C  0.88580977  0.92426236  0.64343578     0.10800
S841        S  0.89947840  0.01087860  0.65282623    -0.32600
S842        S  0.87837028  0.89113676  0.63786654    -0.32600
H843        H  0.85577562  0.89086114  0.65264232     0.28800
H844        H  0.89326469  0.01696837  0.62747643     0.28800
H845        H  0.87905204  0.97323379  0.68583638     0.19400
H846        H  0.90338630  0.92773830  0.60644321     0.19400
C847        C  0.11419959  0.93871455  0.73301378    -0.06500
C848        C  0.13376499  0.95029249  0.71861121    -0.17600
C849        C  0.15130687  0.96690580  0.72983798     0.10700
C850        C  0.14929407  0.97248475  0.75610376    -0.06400
C851        C  0.13097424  0.95955055  0.77093047    -0.17600
C852        C  0.11326486  0.94298190  0.75969557     0.10800
S853        S  0.17472000  0.98196085  0.70933416    -0.32600
S854        S  0.08823917  0.93053499  0.78000869    -0.32600
H855        H  0.06835979  0.93627839  0.76296838     0.28800
H856        H  0.19258239  0.98698942  0.72858510     0.28800
H857        H  0.13487592  0.94704786  0.69822716     0.19400
H858        H  0.12897006  0.96417048  0.79098659     0.19400
C859        C  0.05079974  0.86914761  0.72884823    -0.06500
C860        C  0.04541189  0.87087515  0.75507196    -0.17600
C861        C  0.02725704  0.85499518  0.76676570     0.10700
C862        C  0.01487015  0.83607068  0.75221691    -0.06400
C863        C  0.02193413  0.83280611  0.72653997    -0.17600
C864        C  0.03981334  0.84900859  0.71475458     0.10800
S865        S  0.01940120  0.86139728  0.79973967    -0.32600
S866        S  0.04728424  0.84342852  0.68160155    -0.32600
H867        H  0.07213134  0.85366190  0.68253597     0.28800
H868        H  0.99330030  0.85519218  0.79864030     0.28800
H869        H  0.05368031  0.88617193  0.76613854     0.19400
H870        H  0.01249539  0.81832249  0.71528189     0.19400
C871        C  0.05035538  0.93768743  0.66483449    -0.06500
C872        C  0.04197511  0.92346229  0.64383214    -0.17600
C873        C  0.02865703  0.93505925  0.62371780     0.10700
C874        C  0.02394702  0.96173336  0.62409050    -0.06400
C875        C  0.03228652  0.97589757  0.64514400    -0.17600
C876        C  0.04499613  0.96423202  0.66553004     0.10800
S877        S  0.01682955  0.91445864  0.59903009    -0.32600
S878        S  0.05224255  0.98405691  0.69258019    -0.32600
H879        H  0.04475103  0.96579379  0.71089688     0.28800
H880        H  0.99326589  0.92728599  0.59658071     0.28800
H881        H  0.04545426  0.90303300  0.64328166     0.19400
H882        H  0.02844453  0.99622971  0.64596248     0.19400
C883        C  0.23994639  0.06630676  0.21798751    -0.06500
C884        C  0.26609902  0.07125946  0.22122365    -0.17600
C885        C  0.27904660  0.08871395  0.20557813     0.10700
C886        C  0.26569885  0.10141054  0.18592142    -0.06400
C887        C  0.23904245  0.09825994  0.18431232    -0.17600
C888        C  0.22609773  0.08059531  0.19981024     0.10800
S889        S  0.31269899  0.09341921  0.21125861    -0.32600
S890        S  0.19241438  0.07592927  0.19402488    -0.32600
H891        H  0.19181131  0.04959433  0.19924660     0.28800
H892        H  0.31317297  0.11891813  0.20267648     0.28800
H893        H  0.27677822  0.06047146  0.23526181     0.19400
H894        H  0.22851244  0.10795642  0.16944978     0.19400
C895        C  0.26754362  0.16799428  0.11898071    -0.06500
C896        C  0.28358984  0.18657520  0.10795254    -0.17600
C897        C  0.27406017  0.20478677  0.09088394     0.10700
C898        C  0.24799738  0.20412107  0.08405268    -0.06400
C899        C  0.23162708  0.18673377  0.09627656    -0.17600
C900        C  0.24099415  0.16893705  0.11384007     0.10800
S901        S  0.29629686  0.22746804  0.07730924    -0.32600
S902        S  0.21859164  0.14604285  0.12643543    -0.32600
H903        H  0.22231718  0.15404041  0.15173081     0.28800
H904        H  0.27787559  0.24606721  0.07107783     0.28800
H905        H  0.30390194  0.18637075  0.11200316     0.19400
H906        H  0.21166062  0.18595121  0.09087418     0.19400
C907        C  0.37660298  0.07697595  0.09822184    -0.06500
C908        C  0.35526062  0.08387975  0.08360312    -0.17600
C909        C  0.33385092  0.09567120  0.09464966     0.10700
C910        C  0.33380280  0.10157402  0.12093496    -0.06400
C911        C  0.35500606  0.09457981  0.13567753    -0.17600
C912        C  0.37622241  0.08214142  0.12471974     0.10800
S913        S  0.30668273  0.10131486  0.07437428    -0.32600
S914        S  0.40142360  0.07219289  0.14583148    -0.32600
H915        H  0.40540478  0.04837470  0.13400530     0.28800
H916        H  0.28815882  0.09511448  0.09299830     0.28800
H917        H  0.35505706  0.07967272  0.06337455     0.19400
H918        H  0.35490972  0.09858453  0.15594734     0.19400
C919        C  0.26361294  0.93845088  0.18371643    -0.06500
C920        C  0.27696446  0.94855966  0.20450501    -0.17600
C921        C  0.26520861  0.96561654  0.22149523     0.10700
C922        C  0.23952818  0.97299973  0.21764287    -0.06400
C923        C  0.22561033  0.96162709  0.19800024    -0.17600
C924        C  0.23737670  0.94469666  0.18085569     0.10800
S925        S  0.28441450  0.97867889  0.24672553    -0.32600
S926        S  0.21858956  0.93435485  0.15417191    -0.32600
H927        H  0.23777311  0.93937964  0.13585682     0.28800
H928        H  0.26390617  0.98492619  0.26311356     0.28800
H929        H  0.29699376  0.94380801  0.20703222     0.19400
H930        H  0.20603103  0.96763179  0.19472509     0.19400
C931        C  0.26791784  0.87040893  0.11906869    -0.06500
C932        C  0.24141227  0.87272122  0.11506672    -0.17600
C933        C  0.22894601  0.85797964  0.09674757     0.10700
C934        C  0.24298337  0.83965851  0.08266978    -0.06400
C935        C  0.26894222  0.83577983  0.08816609    -0.17600
C936        C  0.28147225  0.85072956  0.10628475     0.10800
S937        S  0.19563059  0.86490440  0.09095878    -0.32600
S938        S  0.31470768  0.84375219  0.11199220    -0.32600
H939        H  0.31416753  0.85143039  0.13768081     0.28800
H940        H  0.19653687  0.86139328  0.06441179     0.28800
H941        H  0.23061389  0.88751703  0.12476339     0.19400
H942        H  0.27977243  0.82163532  0.07748770     0.19400
C943        C  0.33643641  0.93448668  0.12463940    -0.06500
C944        C  0.33473623  0.96077196  0.11949306    -0.17600
C945        C  0.35463866  0.97392181  0.10725039     0.10700
C946        C  0.37683718  0.96049715  0.09913024    -0.06400
C947        C  0.37884713  0.93430151  0.10492065    -0.17600
C948        C  0.35912414  0.92129150  0.11781107     0.10800
S949        S  0.35078943  0.00800965  0.10363000    -0.32600
S950        S  0.36463792  0.88825884  0.12589969    -0.32600
H951        H  0.34952675  0.88833657  0.14821720     0.28800
H952        H  0.37631406  0.01370552  0.10973792     0.28800
H953        H  0.31761470  0.97122891  0.12497242     0.19400
H954        H  0.39593457  0.92384106  0.09936714     0.19400
C955        C  0.27086953  0.94082834  0.88906455    -0.06500
C956        C  0.28679349  0.95299581  0.87108757    -0.17600
C957        C  0.27679939  0.96987746  0.85297297     0.10700
C958        C  0.25025838  0.97512733  0.85291407    -0.06400
C959        C  0.23415963  0.96191524  0.86983014    -0.17600
C960        C  0.24405989  0.94472676  0.88767569     0.10800
S961        S  0.29904549  0.98547699  0.83157599    -0.32600
S962        S  0.22171117  0.93108772  0.91009371    -0.32600
H963        H  0.22646649  0.90601872  0.90156023     0.28800
H964        H  0.28114094  0.99101081  0.81245689     0.28800
H965        H  0.30732379  0.95003801  0.87173387     0.19400
H966        H  0.21385931  0.96628107  0.87023867     0.19400
C967        C  0.26901913  0.87343614  0.95477952    -0.06500
C968        C  0.24234753  0.87531950  0.95795148    -0.17600
C969        C  0.22928450  0.86001194  0.97564913     0.10700
C970        C  0.24303216  0.84160404  0.98979847    -0.06400
C971        C  0.26924545  0.83810279  0.98482207    -0.17600
C972        C  0.28233331  0.85368912  0.96745562     0.10800
S973        S  0.19565418  0.86649915  0.98062870    -0.32600
S974        S  0.31609103  0.84785267  0.96285319    -0.32600
H975        H  0.31694366  0.85680265  0.93754701     0.28800
H976        H  0.19507956  0.86135052  0.00691950     0.28800
H977        H  0.23190485  0.89036572  0.94836641     0.19400
H978        H  0.27984389  0.82388401  0.99551341     0.19400
C979        C  0.33548889  0.93934570  0.95639290    -0.06500
C980        C  0.35714651  0.94683374  0.94229319    -0.17600
C981        C  0.37801208  0.95867833  0.95402608     0.10700
C982        C  0.37756230  0.96280492  0.98073174    -0.06400
C983        C  0.35565601  0.95558923  0.99470051    -0.17600
C984        C  0.33462164  0.94430845  0.98287173     0.10800
S985        S  0.40390505  0.96891737  0.93350525    -0.32600
S986        S  0.30679578  0.93797279  0.00247223    -0.32600
H987        H  0.28887236  0.94463134  0.98369765     0.28800
H988        H  0.40923948  0.99150828  0.94682737     0.28800
H989        H  0.35776105  0.94353987  0.92190019     0.19400
H990        H  0.35476222  0.95903233  0.01506427     0.19400
C991        C  0.27004210  0.16573685  0.95765770    -0.06500
C992        C  0.28579556  0.18401805  0.96918251    -0.17600
C993        C  0.27567752  0.20260539  0.98556879     0.10700
C994        C  0.24914949  0.20283863  0.99112167    -0.06400
C995        C  0.23317802  0.18556932  0.97851727    -0.17600
C996        C  0.24322993  0.16725601  0.96172613     0.10800
S997        S  0.29783076  0.22444876  0.00015856    -0.32600
S998        S  0.22116259  0.14446546  0.94877883    -0.32600
H999        H  0.22562009  0.15260402  0.92354154     0.28800
H1000       H  0.27975878  0.24373808  0.00543963     0.28800
H1001       H  0.30631323  0.18338369  0.96597834     0.19400
H1002       H  0.21290725  0.18524220  0.98309139     0.19400
C1003       C  0.26984457  0.10107207  0.88945322    -0.06500
C1004       C  0.24380577  0.09495195  0.89218821    -0.17600
C1005       C  0.23188571  0.07814833  0.87529575     0.10700
C1006       C  0.24607311  0.06788027  0.85463576    -0.06400
C1007       C  0.27136961  0.07597112  0.85056448    -0.17600
C1008       C  0.28332336  0.09254233  0.86762217     0.10800
S1009       S  0.19922839  0.06919014  0.88238096    -0.32600
S1010       S  0.31595836  0.10157642  0.86086362    -0.32600
H1011       H  0.31445306  0.12551852  0.87296732     0.28800
H1012       H  0.20088106  0.04376168  0.87399464     0.28800
H1013       H  0.23321119  0.10160871  0.90874537     0.19400
H1014       H  0.28233349  0.06815430  0.83475233     0.19400
C1015       C  0.37804747  0.07557528  0.98022014    -0.06500
C1016       C  0.37772701  0.10233243  0.97816501    -0.17600
C1017       C  0.35835763  0.11513712  0.96482027     0.10700
C1018       C  0.33841562  0.10103162  0.95340949    -0.06400
C1019       C  0.33925690  0.07422511  0.95470847    -0.17600
C1020       C  0.35879228  0.06141316  0.96775159     0.10800
S1021       S  0.36069108  0.14942748  0.96241665    -0.32600
S1022       S  0.35827097  0.02698922  0.96715791    -0.32600
H1023       H  0.38499480  0.02420040  0.96655253     0.28800
H1024       H  0.35077056  0.15090029  0.93759537     0.28800
H1025       H  0.39264904  0.11339779  0.98715072     0.19400
H1026       H  0.32428445  0.06310170  0.94587713     0.19400
C1027       C  0.68606384  0.20089623  0.08841011    -0.06500
C1028       C  0.65978756  0.20408301  0.09327397    -0.17600
C1029       C  0.64680412  0.18846038  0.11071489     0.10700
C1030       C  0.66022652  0.16883433  0.12347586    -0.06400
C1031       C  0.68698630  0.16737574  0.12055424    -0.17600
C1032       C  0.69997986  0.18286418  0.10289204     0.10800
S1033       S  0.61305874  0.19423243  0.11543690    -0.32600
S1034       S  0.73382696  0.17723889  0.09845778    -0.32600
H1035       H  0.73440256  0.18142301  0.07199604     0.28800
H1036       H  0.61240150  0.18562188  0.14086758     0.28800
H1037       H  0.64905416  0.21807239  0.08242156     0.19400
H1038       H  0.69760328  0.15260875  0.13045241     0.19400
C1039       C  0.68675014  0.06601321  0.21964222    -0.06500
C1040       C  0.66073280  0.07143861  0.22392772    -0.17600
C1041       C  0.64751556  0.08880315  0.20851480     0.10700
C1042       C  0.66051125  0.10103897  0.18818989    -0.06400
C1043       C  0.68702848  0.09723548  0.18531015    -0.17600
C1044       C  0.70015768  0.07949618  0.20039210     0.10800
S1045       S  0.61404406  0.09406244  0.21541206    -0.32600
S1046       S  0.73341646  0.07366184  0.19270757    -0.32600
H1047       H  0.73373536  0.04749866  0.19875533     0.28800
H1048       H  0.61344063  0.11934646  0.20624529     0.28800
H1049       H  0.65035373  0.06110273  0.23864741     0.19400
H1050       H  0.69723814  0.10657536  0.16982855     0.19400
C1051       C  0.59301561  0.10286194  0.12323409    -0.06500
C1052       C  0.57418281  0.09064223  0.13819290    -0.17600
C1053       C  0.55391281  0.07718061  0.12705432     0.10700
C1054       C  0.55210945  0.07583559  0.10019658    -0.06400
C1055       C  0.57091616  0.08791388  0.08524043    -0.17600
C1056       C  0.59125801  0.10135036  0.09629959     0.10800
S1057       S  0.53165223  0.06127280  0.14817077    -0.32600
S1058       S  0.61536076  0.11520448  0.07554562    -0.32600
H1059       H  0.60602208  0.10557497  0.05240479     0.28800
H1060       H  0.52768020  0.04005060  0.13227501     0.28800
H1061       H  0.57540370  0.09134983  0.15879840     0.19400
H1062       H  0.56951971  0.08687910  0.06467890     0.19400
C1063       C  0.66218259  0.16694264  0.96041963    -0.06500
C1064       C  0.68845244  0.16436126  0.96535714    -0.17600
C1065       C  0.70060757  0.18008139  0.98310563     0.10700
C1066       C  0.68648742  0.19954571  0.99552545    -0.06400
C1067       C  0.66075653  0.20343017  0.98905192    -0.17600
C1068       C  0.64852394  0.18749137  0.97157029     0.10800
S1069       S  0.73359468  0.17306535  0.99037914    -0.32600
S1070       S  0.61538559  0.19405504  0.96466973    -0.32600
H1071       H  0.61616182  0.18419844  0.93973699     0.28800
H1072       H  0.73208523  0.17853969  0.01656398     0.28800
H1073       H  0.69914223  0.14870112  0.95688847     0.19400
H1074       H  0.64982870  0.21832128  0.99854835     0.19400
C1075       C  0.66245107  0.10127502  0.89328791    -0.06500
C1076       C  0.68846847  0.09510207  0.89606675    -0.17600
C1077       C  0.70029659  0.07694457  0.88016372     0.10700
C1078       C  0.68594760  0.06518175  0.86084098    -0.06400
C1079       C  0.66055966  0.07278147  0.85683854    -0.17600
C1080       C  0.64875529  0.09085549  0.87266029     0.10800
S1081       S  0.73287060  0.06704721  0.88608546    -0.32600
S1082       S  0.61600477  0.09932215  0.86597006    -0.32600
H1083       H  0.61734791  0.12405947  0.87633765     0.28800
H1084       H  0.73746525  0.08394916  0.90635171     0.28800
H1085       H  0.69894161  0.10300641  0.91192253     0.19400
H1086       H  0.64956282  0.06376770  0.84192486     0.19400
C1087       C  0.59520303  0.10130888  0.95886412    -0.06500
C1088       C  0.57530756  0.11617013  0.96934500    -0.17600
C1089       C  0.55442859  0.10481091  0.98193226     0.10700
C1090       C  0.55295942  0.07787518  0.98368828    -0.06400
C1091       C  0.57288941  0.06305637  0.97334586    -0.17600
C1092       C  0.59402587  0.07435906  0.96134235     0.10800
S1093       S  0.53109578  0.12574691  0.99649667    -0.32600
S1094       S  0.61942997  0.05324052  0.95108851    -0.32600
H1095       H  0.63929008  0.06919831  0.95945293     0.28800
H1096       H  0.52697965  0.11036654  0.01817479     0.28800
H1097       H  0.57618298  0.13682862  0.96799807     0.19400
H1098       H  0.57217587  0.04241101  0.97497765     0.19400
C1099       C  0.65721651  0.86757156  0.95411506    -0.06500
C1100       C  0.68387072  0.86898520  0.95708811    -0.17600
C1101       C  0.69642551  0.85398875  0.97522961     0.10700
C1102       C  0.68220608  0.83628273  0.98993589    -0.06400
C1103       C  0.65605179  0.83304693  0.98511232    -0.17600
C1104       C  0.64335256  0.84855376  0.96743325     0.10800
S1105       S  0.73008048  0.85993208  0.97996229    -0.32600
S1106       S  0.60941778  0.84430749  0.96250957    -0.32600
H1107       H  0.60615850  0.82347323  0.97921738     0.28800
H1108       H  0.73016432  0.85579713  0.00643148     0.28800
H1109       H  0.69468354  0.88348143  0.94691079     0.19400
H1110       H  0.64533616  0.81931560  0.99637109     0.19400
C1111       C  0.65856831  0.93527912  0.88894720    -0.06500
C1112       C  0.68510609  0.93883761  0.89112538    -0.17600
C1113       C  0.69790451  0.95735888  0.87654679     0.10700
C1114       C  0.68408512  0.97189947  0.85853288    -0.06400
C1115       C  0.65806756  0.96669523  0.85479095    -0.17600
C1116       C  0.64519812  0.94858309  0.86971016     0.10800
S1117       S  0.73127930  0.96271996  0.88336650    -0.32600
S1118       S  0.61155217  0.94400127  0.86385361    -0.32600
H1119       H  0.61094233  0.91840201  0.87210149     0.28800
H1120       H  0.73175675  0.98898187  0.87779253     0.28800
H1121       H  0.69555141  0.92877084  0.90584490     0.19400
H1122       H  0.64741235  0.97776521  0.84095299     0.19400
C1123       C  0.59283256  0.93522142  0.95594462    -0.06500
C1124       C  0.57130366  0.92138909  0.96408823    -0.17600
C1125       C  0.55146483  0.93321010  0.97784027     0.10700
C1126       C  0.55273412  0.95972667  0.98308721    -0.06400
C1127       C  0.57458819  0.97337172  0.97543344    -0.17600
C1128       C  0.59471905  0.96139347  0.96233028     0.10800
S1129       S  0.52585531  0.91307778  0.98927730    -0.32600
S1130       S  0.62278674  0.98028800  0.95550345    -0.32600
H1131       H  0.64042535  0.96058831  0.96061612     0.28800
H1132       H  0.52277133  0.92583267  0.01270239     0.28800
H1133       H  0.57007260  0.90113517  0.95995380     0.19400
H1134       H  0.57606693  0.99355251  0.97978352     0.19400
C1135       C  0.68854405  0.97286978  0.21994587    -0.06500
C1136       C  0.70368935  0.96136267  0.20097260    -0.17600
C1137       C  0.69289137  0.94476017  0.18315196     0.10700
C1138       C  0.66636917  0.93930609  0.18458317    -0.06400
C1139       C  0.65187574  0.94916470  0.20497689    -0.17600
C1140       C  0.66269855  0.96570110  0.22269492     0.10800
S1141       S  0.71338146  0.93368043  0.15763976    -0.32600
S1142       S  0.64216311  0.97865038  0.24728846    -0.32600
H1143       H  0.66182022  0.98333666  0.26481681     0.28800
H1144       H  0.69603502  0.93992706  0.13821040     0.28800
H1145       H  0.72351471  0.96706414  0.19870422     0.19400
H1146       H  0.63164423  0.94481330  0.20650105     0.19400
C1147       C  0.66128606  0.87341775  0.11766152    -0.06500
C1148       C  0.68780316  0.87390102  0.11299330    -0.17600
C1149       C  0.69921491  0.85737027  0.09528465     0.10700
C1150       C  0.68402778  0.83911882  0.08268574    -0.06400
C1151       C  0.65793100  0.83721942  0.08892061    -0.17600
C1152       C  0.64636183  0.85417235  0.10621414     0.10800
S1153       S  0.73274033  0.86193284  0.08816967    -0.32600
S1154       S  0.61256485  0.85115044  0.11323677    -0.32600
H1155       H  0.60872404  0.82811318  0.10003897     0.28800
H1156       H  0.73074063  0.85834554  0.06170829     0.28800
H1157       H  0.69944740  0.88853377  0.12169318     0.19400
H1158       H  0.64637316  0.82325544  0.07909806     0.19400
C1159       C  0.59522594  0.93999640  0.12424380    -0.06500
C1160       C  0.57546905  0.92470413  0.11464237    -0.17600
C1161       C  0.55429908  0.93548621  0.10239400     0.10700
C1162       C  0.55238250  0.96231937  0.09996940    -0.06400
C1163       C  0.57178173  0.97768481  0.11008488    -0.17600
C1164       C  0.59315226  0.96693505  0.12200272     0.10800
S1165       S  0.53127415  0.91387747  0.08893257    -0.32600
S1166       S  0.61757746  0.98873295  0.13248667    -0.32600
H1167       H  0.63803900  0.97417599  0.12258538     0.28800
H1168       H  0.52739032  0.92819365  0.06655468     0.28800
H1169       H  0.57682664  0.90407773  0.11612645     0.19400
H1170       H  0.57050868  0.99830106  0.10823667     0.19400
C1171       C  0.04557206  0.32652581  0.18623431    -0.06500
C1172       C  0.03293636  0.34317379  0.20322716    -0.17600
C1173       C  0.01614255  0.33399812  0.22201603     0.10700
C1174       C  0.01122761  0.30750348  0.22371899    -0.06400
C1175       C  0.02529172  0.29070555  0.20816465    -0.17600
C1176       C  0.04269444  0.29980594  0.18985731     0.10800
S1177       S  0.00029124  0.35717912  0.24216013    -0.32600
S1178       S  0.05827742  0.27627198  0.17010142    -0.32600
H1179       H  0.08295200  0.28406995  0.17726704     0.28800
H1180       H  0.99458875  0.34016461  0.26219530     0.28800
H1181       H  0.03542504  0.36364831  0.20128294     0.19400
H1182       H  0.02151124  0.27036363  0.20919201     0.19400
C1183       C  0.11110907  0.32308969  0.11764566    -0.06500
C1184       C  0.10828067  0.29702709  0.11199298    -0.17600
C1185       C  0.12460962  0.28482715  0.09447687     0.10700
C1186       C  0.14479166  0.29882403  0.08301208    -0.06400
C1187       C  0.14889686  0.32421304  0.09037531    -0.17600
C1188       C  0.13238832  0.33643192  0.10758655     0.10800
S1189       S  0.11740831  0.25202814  0.08652312    -0.32600
S1190       S  0.13903447  0.36930099  0.11532280    -0.32600
H1191       H  0.12818294  0.36838310  0.13994824     0.28800
H1192       H  0.12897095  0.25117626  0.06230400     0.28800
H1193       H  0.09206595  0.28661063  0.11971373     0.19400
H1194       H  0.16432983  0.33499779  0.08160145     0.19400
C1195       C  0.04736685  0.39227101  0.11889636    -0.06500
C1196       C  0.04567930  0.39241102  0.09216319    -0.17600
C1197       C  0.03333186  0.41226423  0.07911588     0.10700
C1198       C  0.02178255  0.43246702  0.09299236    -0.06400
C1199       C  0.02394656  0.43265220  0.11965816    -0.17600
C1200       C  0.03675961  0.41304854  0.13267888     0.10800
S1201       S  0.03385076  0.41104919  0.04475573    -0.32600
S1202       S  0.03974166  0.41631470  0.16672548    -0.32600
H1203       H  0.06456757  0.40588498  0.16780554     0.28800
H1204       H  0.03648065  0.43758110  0.04129049     0.28800
H1205       H  0.05392981  0.37680371  0.08126456     0.19400
H1206       H  0.01554966  0.44823560  0.13048173     0.19400
C1207       C  0.14630813  0.30009826  0.99025779    -0.06500
C1208       C  0.12857396  0.28437142  0.97799166    -0.17600
C1209       C  0.10965847  0.29472433  0.96217200     0.10700
C1210       C  0.10867052  0.32149232  0.95798795    -0.06400
C1211       C  0.12760128  0.33691761  0.96891137    -0.17600
C1212       C  0.14636429  0.32656795  0.98479975     0.10800
S1213       S  0.08579254  0.27301211  0.95047304    -0.32600
S1214       S  0.16881808  0.34838891  0.99897096    -0.32600
H1215       H  0.18765820  0.32998268  0.00445799     0.28800
H1216       H  0.06494801  0.28873171  0.95731983     0.28800
H1217       H  0.12802061  0.26416601  0.98258383     0.19400
H1218       H  0.12736357  0.35738246  0.96562525     0.19400
C1219       C  0.04353365  0.32245834  0.89009222    -0.06500
C1220       C  0.03610262  0.29689183  0.89341032    -0.17600
C1221       C  0.01770863  0.28576308  0.87767267     0.10700
C1222       C  0.00728537  0.30015202  0.85739724    -0.06400
C1223       C  0.01626398  0.32500038  0.85284641    -0.17600
C1224       C  0.03429423  0.33625113  0.86885707     0.10800
S1225       S  0.00716270  0.25390260  0.88578096    -0.32600
S1226       S  0.04419809  0.36847544  0.86158938    -0.32600
H1227       H  0.06845812  0.36637966  0.87285135     0.28800
H1228       H  0.98207445  0.25595460  0.87660906     0.28800
H1229       H  0.04297980  0.28618930  0.90969134     0.19400
H1230       H  0.00830607  0.33610851  0.83732932     0.19400
C1231       C  0.04514643  0.39088395  0.95352202    -0.06500
C1232       C  0.01831364  0.39141780  0.95533619    -0.17600
C1233       C  0.00537996  0.41163415  0.96725662     0.10700
C1234       C  0.01947365  0.43201734  0.97783474    -0.06400
C1235       C  0.04628555  0.43174175  0.97565319    -0.17600
C1236       C  0.05922833  0.41151799  0.96361894     0.10800
S1237       S  0.97087750  0.41042951  0.96782931    -0.32600
S1238       S  0.09360805  0.41353347  0.96128389    -0.32600
H1239       H  0.09541877  0.40203789  0.93710957     0.28800
H1240       H  0.96742592  0.43684139  0.96405488     0.28800
H1241       H  0.00726803  0.37574624  0.94766295     0.19400
H1242       H  0.05727485  0.44729488  0.98363355     0.19400
C1243       C  0.81431345  0.32677611  0.95680975    -0.06500
C1244       C  0.81660459  0.30021200  0.96024017    -0.17600
C1245       C  0.80187752  0.28726554  0.97856237     0.10700
C1246       C  0.78362408  0.30097679  0.99317456    -0.06400
C1247       C  0.77988964  0.32708894  0.98826681    -0.17600
C1248       C  0.79489089  0.34008294  0.97028162     0.10800
S1249       S  0.80880428  0.25379974  0.98355549    -0.32600
S1250       S  0.78867328  0.37373324  0.96595460    -0.32600
H1251       H  0.79598407  0.37428699  0.94008310     0.28800
H1252       H  0.80377700  0.25326976  0.00989574     0.28800
H1253       H  0.83144658  0.28976787  0.95015642     0.19400
H1254       H  0.76591875  0.33769566  0.99943510     0.19400
C1255       C  0.87903105  0.32773615  0.88744404    -0.06500
C1256       C  0.89296547  0.34325098  0.87037647    -0.17600
C1257       C  0.91015753  0.33272590  0.85268231     0.10700
C1258       C  0.91418900  0.30604974  0.85225759    -0.06400
C1259       C  0.89882407  0.29034644  0.86764600    -0.17600
C1260       C  0.88098897  0.30077136  0.88481703     0.10800
S1261       S  0.92771322  0.35439756  0.83227853    -0.32600
S1262       S  0.86351360  0.27843839  0.90436958    -0.32600
H1263       H  0.83955665  0.28756233  0.89622065     0.28800
H1264       H  0.93348591  0.33643623  0.81313964     0.28800
H1265       H  0.89120806  0.36386975  0.87144826     0.19400
H1266       H  0.90185325  0.26983722  0.86739232     0.19400
C1267       C  0.90415022  0.43491490  0.97820226    -0.06500
C1268       C  0.90211021  0.43516482  0.95151132    -0.17600
C1269       C  0.88888309  0.41589944  0.93856997     0.10700
C1270       C  0.87777446  0.39549235  0.95249749    -0.06400
C1271       C  0.87944644  0.39559875  0.97922084    -0.17600
C1272       C  0.89218717  0.41505764  0.99216577     0.10800
S1273       S  0.88597527  0.41910461  0.90449691    -0.32600
S1274       S  0.89173597  0.41374905  0.02655835    -0.32600
H1275       H  0.88903079  0.44028158  0.03001490     0.28800
H1276       H  0.86097335  0.40924323  0.90349717     0.28800
H1277       H  0.91086502  0.45051995  0.94064552     0.19400
H1278       H  0.87088983  0.38023215  0.99022196     0.19400
C1279       C  0.88550430  0.32624312  0.18530791    -0.06500
C1280       C  0.89413949  0.34114077  0.20572357    -0.17600
C1281       C  0.91023635  0.33086989  0.22430772     0.10700
C1282       C  0.91806105  0.30508350  0.22259263    -0.06400
C1283       C  0.90829189  0.28975134  0.20307303    -0.17600
C1284       C  0.89252600  0.30010775  0.18418449     0.10800
S1285       S  0.92164111  0.35199465  0.24882516    -0.32600
S1286       S  0.88487993  0.27978632  0.15762158    -0.32600
H1287       H  0.88977603  0.29851134  0.13891290     0.28800
H1288       H  0.92647104  0.33271314  0.26689788     0.28800
H1289       H  0.88886322  0.36116613  0.20683108     0.19400
H1290       H  0.91493141  0.27018712  0.20119256     0.19400
C1291       C  0.81782318  0.32558416  0.12053567    -0.06500
C1292       C  0.82202666  0.29972488  0.11457106    -0.17600
C1293       C  0.80656086  0.28693284  0.09708938     0.10700
C1294       C  0.78577266  0.29999064  0.08590217    -0.06400
C1295       C  0.78035764  0.32517806  0.09337874    -0.17600
C1296       C  0.79597752  0.33800658  0.11068918     0.10800
S1297       S  0.81554241  0.25460852  0.08878778    -0.32600
S1298       S  0.78706952  0.37015759  0.11928850    -0.32600
H1299       H  0.79761762  0.36916412  0.14386152     0.28800
H1300       H  0.80623172  0.25451179  0.06376649     0.28800
H1301       H  0.83862786  0.28991274  0.12208230     0.19400
H1302       H  0.76441173  0.33525656  0.08484388     0.19400
C1303       C  0.87980921  0.39614069  0.12378529    -0.06500
C1304       C  0.90642018  0.39538226  0.11990655    -0.17600
C1305       C  0.91932496  0.41518851  0.10745227     0.10700
C1306       C  0.90539234  0.43629490  0.09794721    -0.06400
C1307       C  0.87885929  0.43752308  0.10245905    -0.17600
C1308       C  0.86597919  0.41782956  0.11542276     0.10800
S1309       S  0.95369337  0.41261618  0.10505614    -0.32600
S1310       S  0.83221262  0.42199024  0.12131277    -0.32600
H1311       H  0.83176329  0.40850039  0.14452974     0.28800
H1312       H  0.95821206  0.43881021  0.10900714     0.28800
H1313       H  0.91734316  0.37903423  0.12647962     0.19400
H1314       H  0.86803179  0.45381703  0.09560912     0.19400
C1315       C  0.04256269  0.71810605  0.18302707    -0.06500
C1316       C  0.03200082  0.70249729  0.20220487    -0.17600
C1317       C  0.01499544  0.71234254  0.22041155     0.10700
C1318       C  0.00777012  0.73831294  0.21920167    -0.06400
C1319       C  0.01965666  0.75437168  0.20128342    -0.17600
C1320       C  0.03728614  0.74467724  0.18349716     0.10800
S1321       S  0.00193724  0.69050862  0.24375740    -0.32600
S1322       S  0.05006895  0.76669394  0.16032993    -0.32600
H1323       H  0.07550333  0.76222777  0.16780463     0.28800
H1324       H  0.99575640  0.70915522  0.26209238     0.28800
H1325       H  0.03637019  0.68223634  0.20251289     0.19400
H1326       H  0.01407289  0.77431856  0.20023478     0.19400
C1327       C  0.14316638  0.74125117  0.08151625    -0.06500
C1328       C  0.14620312  0.71519518  0.08708646    -0.17600
C1329       C  0.13004487  0.70285185  0.10454131     0.10700
C1330       C  0.11015230  0.71679594  0.11664753    -0.06400
C1331       C  0.10862853  0.74333742  0.11268730    -0.17600
C1332       C  0.12454096  0.75560261  0.09493928     0.10800
S1333       S  0.13546439  0.66922349  0.10997484    -0.32600
S1334       S  0.11865770  0.78908099  0.08885378    -0.32600
H1335       H  0.12320253  0.78832689  0.06242099     0.28800
H1336       H  0.12672693  0.66938805  0.13542039     0.28800
H1337       H  0.16050970  0.70413648  0.07681727     0.19400
H1338       H  0.09353492  0.75429790  0.12182140     0.19400
C1339       C  0.04639296  0.64773622  0.12069075    -0.06500
C1340       C  0.05202158  0.64222456  0.09496778    -0.17600
C1341       C  0.04064920  0.62167865  0.08237085     0.10700
C1342       C  0.02246595  0.60645598  0.09528528    -0.06400
C1343       C  0.01730892  0.61119435  0.12111508    -0.17600
C1344       C  0.02930654  0.63127529  0.13405874     0.10800
S1345       S  0.05058708  0.61563241  0.04991623    -0.32600
S1346       S  0.02254735  0.63399247  0.16769918    -0.32600
H1347       H  0.04817070  0.63870675  0.17427015     0.28800
H1348       H  0.04615645  0.58913594  0.05016594     0.28800
H1349       H  0.06529883  0.65412014  0.08433886     0.19400
H1350       H  0.00380513  0.59913417  0.13129085     0.19400
C1351       C  0.91431421  0.73751238  0.22120665    -0.06500
C1352       C  0.90922180  0.71125865  0.22290716    -0.17600
C1353       C  0.89171810  0.69957348  0.20668412     0.10700
C1354       C  0.87913223  0.71432279  0.18794889    -0.06400
C1355       C  0.88224532  0.74099178  0.18799883    -0.17600
C1356       C  0.89994542  0.75272245  0.20412983     0.10800
S1357       S  0.88691728  0.66563145  0.21033378    -0.32600
S1358       S  0.90448283  0.78675277  0.20045439    -0.32600
H1359       H  0.93068195  0.78731527  0.20615008     0.28800
H1360       H  0.86150154  0.66579749  0.20165809     0.28800
H1361       H  0.91996843  0.69954928  0.23614528     0.19400
H1362       H  0.87252126  0.75255377  0.17388426     0.19400
C1363       C  0.81458062  0.71597752  0.11975909    -0.06500
C1364       C  0.81687329  0.74233514  0.11522479    -0.17600
C1365       C  0.80223625  0.75448429  0.09649883     0.10700
C1366       C  0.78399926  0.74023900  0.08281747    -0.06400
C1367       C  0.78021394  0.71440076  0.08888961    -0.17600
C1368       C  0.79520348  0.70214996  0.10720711     0.10800
S1369       S  0.80927775  0.78757451  0.08968200    -0.32600
S1370       S  0.78922981  0.66868787  0.11307964    -0.32600
H1371       H  0.79802062  0.66876851  0.13835525     0.28800
H1372       H  0.80411978  0.78688013  0.06345212     0.28800
H1373       H  0.83177175  0.75307215  0.12463106     0.19400
H1374       H  0.76621162  0.70342307  0.07844798     0.19400
C1375       C  0.88152363  0.65063860  0.11925985    -0.06500
C1376       C  0.86663329  0.63200009  0.10716083    -0.17600
C1377       C  0.87795880  0.61208631  0.09324976     0.10700
C1378       C  0.90491945  0.61029457  0.09162982    -0.06400
C1379       C  0.91984113  0.62894922  0.10357940    -0.17600
C1380       C  0.90854596  0.64912544  0.11712995     0.10800
S1381       S  0.85692829  0.59031654  0.07709217    -0.32600
S1382       S  0.92978616  0.67279268  0.13010510    -0.32600
H1383       H  0.91477333  0.69377593  0.12244110     0.28800
H1384       H  0.87283061  0.58721648  0.05552848     0.28800
H1385       H  0.84593108  0.63310684  0.10829879     0.19400
H1386       H  0.94054119  0.62782157  0.10230364     0.19400
C1387       C  0.88528037  0.71790888  0.88832952    -0.06500
C1388       C  0.89677603  0.70229717  0.86973048    -0.17600
C1389       C  0.91369968  0.71230281  0.85158601     0.10700
C1390       C  0.91969608  0.73857957  0.85197277    -0.06400
C1391       C  0.90682929  0.75462474  0.86927312    -0.17600
C1392       C  0.88982194  0.74460873  0.88753821     0.10800
S1393       S  0.92849210  0.69026311  0.82949508    -0.32600
S1394       S  0.87701569  0.76652309  0.91085882    -0.32600
H1395       H  0.88342135  0.75100964  0.93181775     0.28800
H1396       H  0.93346043  0.70844744  0.81030662     0.28800
H1397       H  0.89317555  0.68189940  0.86981279     0.19400
H1398       H  0.91168507  0.77474307  0.86993368     0.19400
C1399       C  0.81696551  0.71775968  0.95351310    -0.06500
C1400       C  0.82195067  0.74285721  0.96139937    -0.17600
C1401       C  0.80630344  0.75501434  0.97939410     0.10700
C1402       C  0.78505575  0.74185593  0.98969903    -0.06400
C1403       C  0.77893243  0.71753246  0.98043314    -0.17600
C1404       C  0.79452672  0.70544408  0.96226151     0.10800
S1405       S  0.81615438  0.78606238  0.99047196    -0.32600
S1406       S  0.78509587  0.67421593  0.95144046    -0.32600
H1407       H  0.79766289  0.67570678  0.92766534     0.28800
H1408       H  0.79147483  0.79548754  0.99551876     0.28800
H1409       H  0.83915152  0.75244779  0.95487043     0.19400
H1410       H  0.76254138  0.70746318  0.98825812     0.19400
C1411       C  0.88125359  0.64923399  0.95148523    -0.06500
C1412       C  0.90775869  0.65075608  0.95546218    -0.17600
C1413       C  0.92120373  0.63113677  0.96763968     0.10700
C1414       C  0.90794641  0.60926034  0.97648693    -0.06400
C1415       C  0.88145108  0.60756564  0.97227197    -0.17600
C1416       C  0.86801539  0.62719853  0.95988842     0.10800
S1417       S  0.95536139  0.63499079  0.97047469    -0.32600
S1418       S  0.83426115  0.62259475  0.95488990    -0.32600
H1419       H  0.83353910  0.63537504  0.93129242     0.28800
H1420       H  0.96120863  0.60924313  0.96530778     0.28800
H1421       H  0.91817511  0.66751817  0.94908572     0.19400
H1422       H  0.87106883  0.59085914  0.97883905     0.19400
C1423       C  0.11152792  0.71776146  0.95329597    -0.06500
C1424       C  0.10839153  0.74402169  0.95796714    -0.17600
C1425       C  0.12349435  0.75662958  0.97596946     0.10700
C1426       C  0.14292906  0.74295652  0.98877529    -0.06400
C1427       C  0.14739647  0.71728190  0.98245906    -0.17600
C1428       C  0.13201267  0.70459064  0.96490548     0.10800
S1429       S  0.11564780  0.78948454  0.98308720    -0.32600
S1430       S  0.13900193  0.67136379  0.95877700    -0.32600
H1431       H  0.12963094  0.67133087  0.93371049     0.28800
H1432       H  0.12130070  0.78852685  0.00920935     0.28800
H1433       H  0.09269749  0.75427441  0.94918425     0.19400
H1434       H  0.16223179  0.70669184  0.99226767     0.19400
C1435       C  0.04814381  0.71312566  0.88430098    -0.06500
C1436       C  0.04473676  0.73978126  0.88419832    -0.17600
C1437       C  0.02703230  0.75147460  0.86801027     0.10700
C1438       C  0.01301477  0.73637502  0.85078089    -0.06400
C1439       C  0.01813267  0.71006968  0.84925106    -0.17600
C1440       C  0.03570263  0.69835206  0.86556757     0.10800
S1441       S  0.02169667  0.78534676  0.87187036    -0.32600
S1442       S  0.04106933  0.66448851  0.86177858    -0.32600
H1443       H  0.06655397  0.66495120  0.87024326     0.28800
H1444       H  0.99499997  0.78467704  0.86885787     0.28800
H1445       H  0.05423246  0.75139586  0.89832816     0.19400
H1446       H  0.00753361  0.69841623  0.83594774     0.19400
C1447       C  0.04796281  0.64930856  0.95273421    -0.06500
C1448       C  0.04591203  0.62575458  0.94026140    -0.17600
C1449       C  0.03396680  0.60480677  0.95207191     0.10700
C1450       C  0.02400179  0.60724460  0.97722019    -0.06400
C1451       C  0.02584271  0.63111832  0.98935686    -0.17600
C1452       C  0.03751906  0.65202191  0.97747416     0.10800
S1453       S  0.03086588  0.57621634  0.93333073    -0.32600
S1454       S  0.03759377  0.68187541  0.99464209    -0.32600
H1455       H  0.03444593  0.69757003  0.97308543     0.28800
H1456       H  0.00498476  0.57255383  0.94000182     0.28800
H1457       H  0.05350193  0.62373287  0.92106698     0.19400
H1458       H  0.01779146  0.63373650  0.00826822     0.19400
loop_ 
_geom_bond_atom_site_label_1 
_geom_bond_atom_site_label_2 
_geom_bond_distance 
_geom_bond_site_symmetry_2 
_ccdc_geom_bond_type 
C1            N2   1.356       .  A
C1            N6   1.355       .  A
C1         C1447   1.474       .  S
N2            C3   1.360       .  A
C3            N4   1.362       .  A
C3         C1435   1.482       .  S
N4            C5   1.360       .  A
C5            N6   1.358       .  A
C5         C1423   1.478       .  S
C7            N8   1.359       .  A
C7           N12   1.357       .  A
C7         C1411   1.482       .  S
N8            C9   1.362       .  A
C9           N10   1.360       .  A
C9         C1399   1.474       .  S
N10          C11   1.357       .  A
C11          N12   1.358       .  A
C11        C1387   1.482       .  S
C13          N14   1.355       .  A
C13          N18   1.356       .  A
C13        C1375   1.482       .  S
N14          C15   1.358       .  A
C15          N16   1.361       .  A
C15        C1363   1.477       .  S
N16          C17   1.361       .  A
C17          N18   1.359       .  A
C17        C1354   1.481       .  S
C19          N20   1.357       .  A
C19          N24   1.359       .  A
C19        C1339   1.495       .  S
N20          C21   1.360       .  A
C21          N22   1.358       .  A
C21        C1315   1.482       .  S
N22          C23   1.359       .  A
C23          N24   1.359       .  A
C23        C1330   1.481       .  S
C25          N26   1.357       .  A
C25          N30   1.360       .  A
C25        C1303   1.481       .  S
N26          C27   1.356       .  A
C27          N28   1.358       .  A
C27        C1279   1.479       .  S
N28          C29   1.360       .  A
C29          N30   1.363       .  A
C29        C1291   1.481       .  S
C31          N32   1.359       .  A
C31          N36   1.357       .  A
C31        C1270   1.485       .  S
N32          C33   1.362       .  A
C33          N34   1.359       .  A
C33        C1255   1.491       .  S
N34          C35   1.359       .  A
C35          N36   1.358       .  A
C35        C1243   1.481       .  S
C37          N38   1.358       .  A
C37          N42   1.357       .  A
C37        C1231   1.482       .  S
N38          C39   1.361       .  A
C39          N40   1.361       .  A
C39        C1210   1.485       .  S
N40          C41   1.360       .  A
C41          N42   1.358       .  A
C41        C1219   1.478       .  S
C43          N44   1.358       .  A
C43          N48   1.358       .  A
C43        C1195   1.487       .  S
N44          C45   1.359       .  A
C45          N46   1.359       .  A
C45        C1183   1.478       .  S
N46          C47   1.359       .  A
C47          N48   1.362       .  A
C47        C1171   1.489       .  S
O49         Zr61   2.448   1_455  S
O49          C51   1.289       .  A
O50         Zr87   2.431       .  S
O50          C51   1.288   1_655  A
C51        C1342   1.476       .  S
O52         Zr64   2.454       .  S
O52          C54   1.290       .  A
O53         Zr88   2.417       .  S
O53          C54   1.285   1_654  A
C54        C1234   1.480       .  S
O55         Zr64   2.455       .  S
O55          C57   1.290       .  A
O56         Zr87   2.420       .  S
O56          C57   1.287   1_654  A
C57        C1450   1.491       .  S
O58         Zr61   2.454   1_455  S
O58          C60   1.290       .  A
O59         Zr88   2.430       .  S
O59          C60   1.288   1_655  A
C60        C1198   1.484       .  S
Zr61         O62   2.434   1_655  S
Zr61         O63   2.436       .  S
Zr61         O67   2.380   1_655  S
Zr61         O68   2.372   1_655  S
Zr61         O91   2.370       .  S
Zr61         O93   2.374       .  S
O62         H105   0.990       .  S
O63         H104   0.990       .  S
O63         H108   0.990   1_655  S
Zr64         O65   2.436   1_556  S
Zr64         O66   2.433       .  S
Zr64         O68   2.371   1_556  S
Zr64         O67   2.378   1_556  S
Zr64         O92   2.371   1_455  S
Zr64         O94   2.375   1_455  S
O65         H106   0.990       .  S
O65         H109   0.990       .  S
O66          H99   0.990       .  S
O67         Zr87   2.381   1_455  S
O68         Zr88   2.381   1_455  S
O68          H95   0.965       .  S
O69         Zr81   2.443       .  S
O69          C71   1.288       .  A
O70         Zr88   2.421       .  S
O70          C71   1.286       .  A
C71        C1306   1.479       .  S
O72         Zr84   2.449       .  S
O72          C74   1.290       .  A
O73         Zr87   2.428       .  S
O73          C74   1.288   1_554  A
C74        C1414   1.484       .  S
O75         Zr84   2.449       .  S
O75          C77   1.289       .  A
O76         Zr88   2.421       .  S
O76          C77   1.286   1_554  A
C77        C1267   1.480       .  S
O78         Zr81   2.448       .  S
O78          C80   1.289       .  A
O79         Zr87   2.423       .  S
O79          C80   1.287       .  A
C80        C1378   1.478       .  S
Zr81         O82   2.434       .  S
Zr81         O83   2.434       .  S
Zr81         O89   2.369       .  S
Zr81         O90   2.369       .  S
Zr81         O93   2.373       .  S
Zr81         O91   2.380       .  S
O82         H102   0.990       .  S
O82         H107   0.990       .  S
O83         H103   0.990       .  S
Zr84         O85   2.434       .  S
Zr84         O86   2.434       .  S
Zr84         O90   2.376   1_556  S
Zr84         O89   2.374   1_556  S
Zr84         O94   2.373       .  S
Zr84         O92   2.371       .  S
O85         H101   0.990   1_556  S
O86         H100   0.990       .  S
O86         H110   0.990       .  S
Zr87         O90   2.381       .  S
Zr87         O92   2.384   1_554  S
Zr87         O93   2.383       .  S
Zr88         O89   2.385       .  S
Zr88         O91   2.380       .  S
Zr88         O94   2.380   1_554  S
O89          H97   0.964       .  S
O92          H96   0.966       .  S
O93          H98   0.966       .  S
C111        N112   1.355       .  A
C111        N116   1.357       .  A
C111       C1159   1.483       .  S
N112        C113   1.359       .  A
C113        N114   1.359       .  A
C113       C1138   1.476       .  S
N114        C115   1.360       .  A
C115        N116   1.359       .  A
C115       C1147   1.480       .  S
C117        N118   1.356       .  A
C117        N122   1.355       .  A
C117       C1123   1.476       .  S
N118        C119   1.359       .  A
C119        N120   1.360       .  A
C119       C1111   1.478       .  S
N120        C121   1.361       .  A
C121        N122   1.358       .  A
C121       C1099   1.478       .  S
C123        N124   1.356       .  A
C123        N128   1.359       .  A
C123       C1087   1.483       .  S
N124        C125   1.358       .  A
C125        N126   1.359       .  A
C125       C1075   1.477       .  S
N126        C127   1.360       .  A
C127        N128   1.361       .  A
C127       C1063   1.480       .  S
C129        N130   1.361       .  A
C129        N134   1.359       .  A
C129       C1051   1.494       .  S
N130        C131   1.362       .  A
C131        N132   1.358       .  A
C131       C1042   1.480       .  S
N132        C133   1.357       .  A
C133        N134   1.360       .  A
C133       C1030   1.482       .  S
C135        N136   1.359       .  A
C135        N140   1.360       .  A
C135       C1018   1.487       .  S
N136        C137   1.360       .  A
C137        N138   1.357       .  A
C137        C991   1.484       .  S
N138        C139   1.358       .  A
C139        N140   1.361       .  A
C139       C1003   1.478       .  S
C141        N142   1.357       .  A
C141        N146   1.358       .  A
C141        C979   1.480       .  S
N142        C143   1.358       .  A
C143        N144   1.358       .  A
C143        C967   1.478       .  S
N144        C145   1.358       .  A
C145        N146   1.361       .  A
C145        C955   1.483       .  S
C147        N148   1.358       .  A
C147        N152   1.360       .  A
C147        C943   1.483       .  S
N148        C149   1.358       .  A
C149        N150   1.359       .  A
C149        C919   1.482       .  S
N150        C151   1.361       .  A
C151        N152   1.363       .  A
C151        C931   1.486       .  S
C153        N154   1.357       .  A
C153        N158   1.357       .  A
C153        C910   1.479       .  S
N154        C155   1.360       .  A
C155        N156   1.360       .  A
C155        C886   1.482       .  S
N156        C157   1.359       .  A
C157        N158   1.359       .  A
C157        C895   1.483       .  S
O159       Zr171   2.458       .  S
O159        C161   1.290       .  A
O160       Zr197   2.432       .  S
O160        C161   1.288       .  A
C161       C1054   1.487       .  S
O162       Zr174   2.454       .  S
O162        C164   1.291       .  A
O163       Zr198   2.426   1_565  S
O163        C164   1.287       .  A
C164        C946   1.488       .  S
O165       Zr174   2.456       .  S
O165        C167   1.291       .  A
O166       Zr197   2.415   1_565  S
O166        C167   1.285       .  A
C167       C1162   1.478       .  S
O168       Zr171   2.450       .  S
O168        C170   1.290       .  A
O169       Zr198   2.418       .  S
O169        C170   1.286       .  A
C170        C907   1.483       .  S
Zr171       O172   2.435       .  S
Zr171       O173   2.435       .  S
Zr171       O177   2.370       .  S
Zr171       O178   2.371       .  S
Zr171       O201   2.383       .  S
Zr171       O203   2.374       .  S
O172        H215   0.990       .  S
O173        H214   0.990       .  S
O173        H218   0.990       .  S
Zr174       O175   2.434       .  S
Zr174       O176   2.434       .  S
Zr174       O178   2.374   1_565  S
Zr174       O177   2.375   1_565  S
Zr174       O202   2.370       .  S
Zr174       O204   2.377       .  S
O175        H216   0.990       .  S
O175        H219   0.990       .  S
O176        H209   0.990       .  S
O177       Zr197   2.378       .  S
O178       Zr198   2.384       .  S
O178        H205   0.966       .  S
O179       Zr191   2.454   1_556  S
O179        C181   1.290       .  A
O180       Zr198   2.432       .  S
O180        C181   1.288   1_554  A
C181       C1015   1.485       .  S
O182       Zr194   2.443   1_556  S
O182        C184   1.288       .  A
O183       Zr197   2.428   1_565  S
O183        C184   1.288   1_554  A
C184       C1126   1.481       .  S
O185       Zr194   2.456   1_556  S
O185        C187   1.290       .  A
O186       Zr198   2.419   1_565  S
O186        C187   1.286   1_554  A
C187        C982   1.486       .  S
O188       Zr191   2.454   1_556  S
O188        C190   1.290       .  A
O189       Zr197   2.419       .  S
O189        C190   1.286   1_554  A
C190       C1090   1.480       .  S
Zr191       O192   2.434   1_554  S
Zr191       O193   2.434       .  S
Zr191       O199   2.370       .  S
Zr191       O200   2.377       .  S
Zr191       O203   2.375       .  S
Zr191       O201   2.376       .  S
O192        H212   0.990       .  S
O192        H217   0.990       .  S
O193        H213   0.990       .  S
Zr194       O195   2.434   1_554  S
Zr194       O196   2.435       .  S
Zr194       O200   2.382   1_565  S
Zr194       O199   2.369   1_565  S
Zr194       O204   2.373       .  S
Zr194       O202   2.373       .  S
O195        H211   0.990       .  S
O196        H210   0.990       .  S
O196        H220   0.990   1_554  S
Zr197       O200   2.382       .  S
Zr197       O202   2.386   1_545  S
Zr197       O203   2.381       .  S
Zr198       O199   2.379       .  S
Zr198       O201   2.383       .  S
Zr198       O204   2.382   1_545  S
O199        H207   0.966   1_554  S
O202        H206   0.966       .  S
O203        H208   0.966       .  S
C221        N222   1.359       .  A
C221        N226   1.358       .  A
C221        C871   1.487       .  S
N222        C223   1.361       .  A
C223        N224   1.361       .  A
C223        C859   1.483       .  S
N224        C225   1.360       .  A
C225        N226   1.360       .  A
C225        C847   1.484       .  S
C227        N228   1.354       .  A
C227        N232   1.358       .  A
C227        C835   1.476       .  S
N228        C229   1.356       .  A
C229        N230   1.360       .  A
C229        C823   1.476       .  S
N230        C231   1.361       .  A
C231        N232   1.361       .  A
C231        C811   1.476       .  S
C233        N234   1.357       .  A
C233        N238   1.355       .  A
C233        C802   1.476       .  S
N234        C235   1.361       .  A
C235        N236   1.362       .  A
C235        C778   1.495       .  S
N236        C237   1.362       .  A
C237        N238   1.357       .  A
C237        C787   1.475       .  S
C239        N240   1.358       .  A
C239        N244   1.356       .  A
C239        C763   1.482       .  S
N240        C241   1.361       .  A
C241        N242   1.360       .  A
C241        C751   1.491       .  S
N242        C243   1.361       .  A
C243        N244   1.359       .  A
C243        C739   1.474       .  S
C245        N246   1.361       .  A
C245        N250   1.361       .  A
C245        C730   1.496       .  S
N246        C247   1.361       .  A
C247        N248   1.359       .  A
C247        C703   1.478       .  S
N248        C249   1.358       .  A
C249        N250   1.359       .  A
C249        C715   1.485       .  S
C251        N252   1.357       .  A
C251        N256   1.356       .  A
C251        C691   1.477       .  S
N252        C253   1.361       .  A
C253        N254   1.360       .  A
C253        C682   1.480       .  S
N254        C255   1.359       .  A
C255        N256   1.358       .  A
C255        C670   1.479       .  S
C257        N258   1.356       .  A
C257        N262   1.360       .  A
C257        C658   1.482       .  S
N258        C259   1.357       .  A
C259        N260   1.359       .  A
C259        C631   1.478       .  S
N260        C261   1.361       .  A
C261        N262   1.364       .  A
C261        C646   1.482       .  S
C263        N264   1.358       .  A
C263        N268   1.361       .  A
C263        C619   1.484       .  S
N264        C265   1.359       .  A
C265        N266   1.357       .  A
C265        C595   1.475       .  S
N266        C267   1.358       .  A
C267        N268   1.362       .  A
C267        C610   1.480       .  S
O269       Zr281   2.458       .  S
O269        C271   1.291       .  A
O270       Zr307   2.430   1_565  S
O270        C271   1.288   1_655  A
C271        C874   1.488       .  S
O272       Zr284   2.448       .  S
O272        C274   1.289       .  A
O273       Zr308   2.432       .  S
O273        C274   1.288   1_655  A
C274        C622   1.486       .  S
O275       Zr284   2.457       .  S
O275        C277   1.291       .  A
O276       Zr307   2.418       .  S
O276        C277   1.286   1_655  A
C277        C766   1.484       .  S
O278       Zr281   2.450       .  S
O278        C280   1.290       .  A
O279       Zr308   2.426   1_565  S
O279        C280   1.287   1_655  A
C280        C655   1.485       .  S
Zr281       O282   2.434       .  S
Zr281       O283   2.435   1_455  S
Zr281       O287   2.375   1_565  S
Zr281       O288   2.379   1_565  S
Zr281       O311   2.371   1_455  S
Zr281       O313   2.374   1_455  S
O282        H325   0.990       .  S
O283        H324   0.990       .  S
O283        H328   0.990   1_655  S
Zr284       O285   2.436       .  S
Zr284       O286   2.434   1_455  S
Zr284       O288   2.375       .  S
Zr284       O287   2.374       .  S
Zr284       O312   2.370   1_455  S
Zr284       O314   2.378   1_455  S
O285        H326   0.990       .  S
O285        H329   0.990       .  S
O286        H319   0.990       .  S
O287       Zr307   2.379   1_455  S
O288       Zr308   2.388   1_455  S
O288        H315   0.966       .  S
O289       Zr301   2.447       .  S
O289        C291   1.289       .  A
O290       Zr308   2.426   1_565  S
O290        C291   1.288       .  A
C291        C694   1.489       .  S
O292       Zr304   2.442       .  S
O292        C294   1.288       .  A
O293       Zr307   2.423       .  S
O293        C294   1.287       .  A
C294        C799   1.479       .  S
O295       Zr304   2.449       .  S
O295        C297   1.288       .  A
O296       Zr308   2.437       .  S
O296        C297   1.289       .  A
C297        C727   1.480       .  S
O298       Zr301   2.448       .  S
O298        C300   1.289       .  A
O299       Zr307   2.420   1_565  S
O299        C300   1.286       .  A
C300        C838   1.480       .  S
Zr301       O302   2.436       .  S
Zr301       O303   2.437       .  S
Zr301       O309   2.378   1_565  S
Zr301       O310   2.372   1_565  S
Zr301       O313   2.374       .  S
Zr301       O311   2.371       .  S
O302        H322   0.990       .  S
O302        H327   0.990       .  S
O303        H323   0.990       .  S
Zr304       O305   2.436       .  S
Zr304       O306   2.435       .  S
Zr304       O310   2.371       .  S
Zr304       O309   2.372       .  S
Zr304       O314   2.375       .  S
Zr304       O312   2.376       .  S
O305        H321   0.990       .  S
O306        H320   0.990       .  S
O306        H330   0.990       .  S
Zr307       O310   2.379       .  S
Zr307       O312   2.384       .  S
Zr307       O313   2.382   1_545  S
Zr308       O309   2.385       .  S
Zr308       O311   2.382   1_545  S
Zr308       O314   2.381       .  S
O309        H317   0.965       .  S
O312        H316   0.966       .  S
O313        H318   0.966       .  S
C331       C1282   1.482       .  S
C331        C332   1.396       .  A
C331        C336   1.414       .  A
C332        C333   1.396       .  A
C332        H351   1.086       .  S
C333       C1174   1.488   1_655  S
C333        C334   1.416       .  A
C334        C335   1.423       .  A
C334        C341   1.406   1_655  A
C335        C336   1.421       .  A
C335        C340   1.420       .  A
C336        C337   1.406       .  A
C337        C338   1.397       .  A
C337        H347   1.083       .  S
C338        C339   1.405       .  A
C338        H348   1.083       .  S
C339        C340   1.422       .  A
C339        C346   1.416       .  A
C340        C343   1.420       .  A
C341        C342   1.394       .  A
C341        H349   1.082       .  S
C342        C343   1.405   1_455  A
C342        H350   1.083       .  S
C343        C344   1.413       .  A
C344        C598   1.478   1_655  S
C344        C345   1.395       .  A
C345        C346   1.395       .  A
C345        H352   1.086       .  S
C346        C706   1.483       .  S
C353        C883   1.483       .  S
C353        C354   1.397       .  A
C353        C358   1.415       .  A
C354        C355   1.395   1_545  A
C354        H373   1.086       .  S
C355        C922   1.482       .  S
C355        C356   1.412       .  A
C356        C357   1.421   1_565  A
C356        C363   1.404       .  A
C357        C358   1.422       .  A
C357        C362   1.419       .  A
C358        C359   1.405       .  A
C359        C360   1.395       .  A
C359        H369   1.083       .  S
C360        C361   1.406       .  A
C360        H370   1.083       .  S
C361        C362   1.421       .  A
C361        C368   1.414       .  A
C362        C365   1.421   1_545  A
C363        C364   1.393       .  A
C363        H371   1.083       .  S
C364        C365   1.405       .  A
C364        H372   1.082       .  S
C365        C366   1.414       .  A
C366        C634   1.484       .  S
C366        C367   1.397   1_565  A
C367        C368   1.396       .  A
C367        H374   1.086       .  S
C368        C607   1.481       .  S
C375       C1207   1.486   1_554  S
C375        C376   1.396       .  A
C375        C380   1.418       .  A
C376        C377   1.393       .  A
C376        H395   1.086       .  S
C377       C1186   1.479       .  S
C377        C378   1.411       .  A
C378        C379   1.421       .  A
C378        C385   1.404       .  A
C379        C380   1.423       .  A
C379        C384   1.421       .  A
C380        C381   1.405   1_554  A
C381        C382   1.398       .  A
C381        H391   1.083       .  S
C382        C383   1.407   1_556  A
C382        H392   1.082       .  S
C383        C384   1.422       .  A
C383        C390   1.418       .  A
C384        C387   1.421       .  A
C385        C386   1.393       .  A
C385        H393   1.083       .  S
C386        C387   1.405       .  A
C386        H394   1.083       .  S
C387        C388   1.413       .  A
C388        C898   1.483       .  S
C388        C389   1.394       .  A
C389        C390   1.397       .  A
C389        H396   1.086       .  S
C390        C994   1.486   1_554  S
C397       C1039   1.482       .  S
C397        C398   1.395       .  A
C397        C402   1.415       .  A
C398        C399   1.395   1_545  A
C398        H417   1.086       .  S
C399       C1135   1.478       .  S
C399        C400   1.410       .  A
C400        C401   1.420   1_565  A
C400        C407   1.405       .  A
C401        C402   1.422       .  A
C401        C406   1.419       .  A
C402        C403   1.405       .  A
C403        C404   1.396       .  A
C403        H413   1.083       .  S
C404        C405   1.406       .  A
C404        H414   1.083       .  S
C405        C406   1.421       .  A
C405        C412   1.414       .  A
C406        C409   1.422   1_545  A
C407        C408   1.392       .  A
C407        H415   1.083       .  S
C408        C409   1.405       .  A
C408        H416   1.082       .  S
C409        C410   1.414       .  A
C410        C667   1.483       .  S
C410        C411   1.396   1_565  A
C411        C412   1.395       .  A
C411        H418   1.086       .  S
C412        C718   1.482       .  S
C419       C1318   1.481   1_655  S
C419        C420   1.396       .  A
C419        C424   1.413       .  A
C420        C421   1.397       .  A
C420        H439   1.086       .  S
C421       C1351   1.484       .  S
C421        C422   1.413       .  A
C422        C423   1.421       .  A
C422        C429   1.405       .  A
C423        C424   1.420       .  A
C423        C428   1.418       .  A
C424        C425   1.406   1_655  A
C425        C426   1.394       .  A
C425        H435   1.082       .  S
C426        C427   1.404   1_455  A
C426        H436   1.083       .  S
C427        C428   1.422       .  A
C427        C434   1.414       .  A
C428        C431   1.421       .  A
C429        C430   1.393       .  A
C429        H437   1.083       .  S
C430        C431   1.405       .  A
C430        H438   1.083       .  S
C431        C432   1.412       .  A
C432        C679   1.480       .  S
C432        C433   1.395       .  A
C433        C434   1.394       .  A
C433        H440   1.086       .  S
C434        C643   1.482   1_655  S
C441        C958   1.482       .  S
C441        C442   1.395   1_565  A
C441        C446   1.415       .  A
C442        C443   1.394       .  A
C442        H461   1.086       .  S
C443       C1006   1.481       .  S
C443        C444   1.414       .  A
C444        C445   1.422       .  A
C444        C451   1.404       .  A
C445        C446   1.421   1_545  A
C445        C450   1.420       .  A
C446        C447   1.406       .  A
C447        C448   1.395       .  A
C447        H457   1.082       .  S
C448        C449   1.405       .  A
C448        H458   1.083       .  S
C449        C450   1.423   1_565  A
C449        C456   1.415       .  A
C450        C453   1.421       .  A
C451        C452   1.394       .  A
C451        H459   1.083       .  S
C452        C453   1.407       .  A
C452        H460   1.082       .  S
C453        C454   1.414       .  A
C454        C754   1.484       .  S
C454        C455   1.397       .  A
C455        C456   1.396   1_545  A
C455        H462   1.086       .  S
C456        C850   1.486       .  S
C463       C1258   1.484       .  S
C463        C464   1.397       .  A
C463        C468   1.415       .  A
C464        C465   1.395       .  A
C464        H483   1.086       .  S
C465       C1222   1.482   1_655  S
C465        C466   1.414       .  A
C466        C467   1.422       .  A
C466        C473   1.405   1_655  A
C467        C468   1.421       .  A
C467        C472   1.420       .  A
C468        C469   1.405       .  A
C469        C470   1.395       .  A
C469        H479   1.082       .  S
C470        C471   1.405       .  A
C470        H480   1.082       .  S
C471        C472   1.423       .  A
C471        C478   1.417       .  A
C472        C475   1.420       .  A
C473        C474   1.394       .  A
C473        H481   1.083       .  S
C474        C475   1.405   1_455  A
C474        H482   1.083       .  S
C475        C476   1.412       .  A
C476        C742   1.479   1_655  S
C476        C477   1.394       .  A
C477        C478   1.397       .  A
C477        H484   1.086       .  S
C478        C775   1.489       .  S
C485       C1426   1.482   1_554  S
C485        C486   1.394       .  A
C485        C490   1.414       .  A
C486        C487   1.394       .  A
C486        H505   1.086       .  S
C487       C1327   1.479       .  S
C487        C488   1.413       .  A
C488        C489   1.420       .  A
C488        C495   1.405       .  A
C489        C490   1.422       .  A
C489        C494   1.419       .  A
C490        C491   1.404   1_554  A
C491        C492   1.394       .  A
C491        H501   1.083       .  S
C492        C493   1.406   1_556  A
C492        H502   1.082       .  S
C493        C494   1.421       .  A
C493        C500   1.414       .  A
C494        C497   1.422       .  A
C495        C496   1.394       .  A
C495        H503   1.083       .  S
C496        C497   1.405       .  A
C496        H504   1.083       .  S
C497        C498   1.414       .  A
C498        C934   1.482       .  S
C498        C499   1.394       .  A
C499        C500   1.396       .  A
C499        H506   1.086       .  S
C500        C970   1.481   1_554  S
C507       C1246   1.482   1_554  S
C507        C508   1.395       .  A
C507        C512   1.415       .  A
C508        C509   1.394       .  A
C508        H527   1.086       .  S
C509       C1294   1.480       .  S
C509        C510   1.414       .  A
C510        C511   1.422       .  A
C510        C517   1.405       .  A
C511        C512   1.422       .  A
C511        C516   1.420       .  A
C512        C513   1.405   1_554  A
C513        C514   1.395       .  A
C513        H523   1.083       .  S
C514        C515   1.405   1_556  A
C514        H524   1.083       .  S
C515        C516   1.422       .  A
C515        C522   1.414       .  A
C516        C519   1.422       .  A
C517        C518   1.395       .  A
C517        H525   1.083       .  S
C518        C519   1.406       .  A
C518        H526   1.082       .  S
C519        C520   1.415       .  A
C520       C1027   1.484       .  S
C520        C521   1.396       .  A
C521        C522   1.394       .  A
C521        H528   1.086       .  S
C522       C1066   1.483   1_554  S
C529       C1438   1.482   1_655  S
C529        C530   1.395       .  A
C529        C534   1.414       .  A
C530        C531   1.396       .  A
C530        H549   1.086       .  S
C531       C1390   1.484       .  S
C531        C532   1.414       .  A
C532        C533   1.423       .  A
C532        C539   1.405       .  A
C533        C534   1.420       .  A
C533        C538   1.420       .  A
C534        C535   1.406   1_655  A
C535        C536   1.396       .  A
C535        H545   1.083       .  S
C536        C537   1.405   1_455  A
C536        H546   1.083       .  S
C537        C538   1.422       .  A
C537        C544   1.416       .  A
C538        C541   1.419       .  A
C539        C540   1.393       .  A
C539        H547   1.082       .  S
C540        C541   1.406       .  A
C540        H548   1.083       .  S
C541        C542   1.413       .  A
C542        C814   1.480       .  S
C542        C543   1.395       .  A
C543        C544   1.397       .  A
C543        H550   1.086       .  S
C544        C862   1.483   1_655  S
C551       C1078   1.480       .  S
C551        C552   1.395       .  A
C551        C556   1.413       .  A
C552        C553   1.396   1_545  A
C552        H571   1.086       .  S
C553       C1114   1.482       .  S
C553        C554   1.414       .  A
C554        C555   1.421   1_565  A
C554        C561   1.405       .  A
C555        C556   1.420       .  A
C555        C560   1.419       .  A
C556        C557   1.406       .  A
C557        C558   1.394       .  A
C557        H567   1.083       .  S
C558        C559   1.405       .  A
C558        H568   1.083       .  S
C559        C560   1.421       .  A
C559        C566   1.413       .  A
C560        C563   1.419   1_545  A
C561        C562   1.394       .  A
C561        H569   1.083       .  S
C562        C563   1.406       .  A
C562        H570   1.083       .  S
C563        C564   1.412       .  A
C564        C826   1.480       .  S
C564        C565   1.397   1_565  A
C565        C566   1.396       .  A
C565        H572   1.086       .  S
C566        C790   1.481       .  S
C573       C1366   1.480       .  S
C573        C574   1.397       .  A
C573        C578   1.414       .  A
C574        C575   1.395       .  A
C574        H593   1.086       .  S
C575       C1402   1.477   1_554  S
C575        C576   1.410       .  A
C576        C577   1.419       .  A
C576        C583   1.405   1_554  A
C577        C578   1.420       .  A
C577        C582   1.417       .  A
C578        C579   1.406       .  A
C579        C580   1.395       .  A
C579        H589   1.083       .  S
C580        C581   1.405       .  A
C580        H590   1.083       .  S
C581        C582   1.420       .  A
C581        C588   1.414       .  A
C582        C585   1.421       .  A
C583        C584   1.391       .  A
C583        H591   1.083       .  S
C584        C585   1.404   1_556  A
C584        H592   1.082       .  S
C585        C586   1.411       .  A
C586       C1102   1.480   1_554  S
C586        C587   1.395       .  A
C587        C588   1.395       .  A
C587        H594   1.086       .  S
C588       C1150   1.481       .  S
C595        C596   1.404       .  A
C595        C600   1.412       .  A
C596        C597   1.399       .  A
C596        H605   1.084       .  S
C597        C598   1.413       .  A
C597        S601   1.806       .  S
C598        C599   1.402       .  A
C599        C600   1.399       .  A
C599        H606   1.084       .  S
C600        S602   1.803       .  S
S601        H604   1.402       .  S
S602        H603   1.407       .  S
C607        C608   1.404       .  A
C607        C612   1.413       .  A
C608        C609   1.400       .  A
C608        H617   1.084       .  S
C609        C610   1.413       .  A
C609        S613   1.801       .  S
C610        C611   1.405       .  A
C611        C612   1.399       .  A
C611        H618   1.084       .  S
C612        S614   1.806       .  S
S613        H616   1.407       .  S
S614        H615   1.404       .  S
C619        C620   1.406       .  A
C619        C624   1.413       .  A
C620        C621   1.406       .  A
C620        H629   1.083       .  S
C621        C622   1.414       .  A
C621        S625   1.808   1_455  S
C622        C623   1.405       .  A
C623        C624   1.402       .  A
C623        H630   1.084       .  S
C624        S626   1.801       .  S
S625        H628   1.407       .  S
S626        H627   1.407       .  S
C631        C632   1.404       .  A
C631        C636   1.413       .  A
C632        C633   1.401       .  A
C632        H641   1.084       .  S
C633        C634   1.415       .  A
C633        S637   1.805       .  S
C634        C635   1.403       .  A
C635        C636   1.398       .  A
C635        H642   1.084       .  S
C636        S638   1.804       .  S
S637        H640   1.404       .  S
S638        H639   1.407       .  S
C643        C644   1.402       .  A
C643        C648   1.413       .  A
C644        C645   1.397       .  A
C644        H653   1.084       .  S
C645        C646   1.413       .  A
C645        S649   1.800       .  S
C646        C647   1.407       .  A
C647        C648   1.402       .  A
C647        H654   1.084       .  S
C648        S650   1.805       .  S
S649        H652   1.407       .  S
S650        H651   1.405   1_455  S
C655        C656   1.406       .  A
C655        C660   1.415       .  A
C656        C657   1.402       .  A
C656        H665   1.084       .  S
C657        C658   1.413       .  A
C657        S661   1.801       .  S
C658        C659   1.405       .  A
C659        C660   1.400       .  A
C659        H666   1.084       .  S
C660        S662   1.804   1_565  S
S661        H664   1.406       .  S
S662        H663   1.407       .  S
C667        C668   1.403       .  A
C667        C672   1.414       .  A
C668        C669   1.397       .  A
C668        H677   1.084       .  S
C669        C670   1.413       .  A
C669        S673   1.804       .  S
C670        C671   1.405       .  A
C671        C672   1.401       .  A
C671        H678   1.084       .  S
C672        S674   1.805       .  S
S673        H676   1.407       .  S
S674        H675   1.405       .  S
C679        C680   1.403       .  A
C679        C684   1.412       .  A
C680        C681   1.397       .  A
C680        H689   1.084       .  S
C681        C682   1.413       .  A
C681        S685   1.803       .  S
C682        C683   1.406       .  A
C683        C684   1.400       .  A
C683        H690   1.084       .  S
C684        S686   1.805       .  S
S685        H688   1.407       .  S
S686        H687   1.405       .  S
C691        C692   1.402       .  A
C691        C696   1.412       .  A
C692        C693   1.404       .  A
C692        H701   1.084       .  S
C693        C694   1.419       .  A
C693        S697   1.802       .  S
C694        C695   1.405       .  A
C695        C696   1.397       .  A
C695        H702   1.082       .  S
C696        S698   1.804       .  S
S697        H700   1.407       .  S
S698        H699   1.407       .  S
C703        C704   1.403       .  A
C703        C708   1.413       .  A
C704        C705   1.399       .  A
C704        H713   1.084       .  S
C705        C706   1.412       .  A
C705        S709   1.805       .  S
C706        C707   1.404       .  A
C707        C708   1.403       .  A
C707        H714   1.084       .  S
C708        S710   1.803       .  S
S709        H712   1.404       .  S
S710        H711   1.406       .  S
C715        C716   1.407       .  A
C715        C720   1.415       .  A
C716        C717   1.402       .  A
C716        H725   1.084       .  S
C717        C718   1.413       .  A
C717        S721   1.807       .  S
C718        C719   1.403       .  A
C719        C720   1.399       .  A
C719        H726   1.084       .  S
C720        S722   1.803       .  S
S721        H724   1.403       .  S
S722        H723   1.407       .  S
C727        C728   1.403       .  A
C727        C732   1.410       .  A
C728        C729   1.405       .  A
C728        H737   1.084       .  S
C729        C730   1.420       .  A
C729        S733   1.800       .  S
C730        C731   1.409       .  A
C731        C732   1.399       .  A
C731        H738   1.083       .  S
C732        S734   1.801       .  S
S733        H736   1.407       .  S
S734        H735   1.405       .  S
C739        C740   1.403       .  A
C739        C744   1.414       .  A
C740        C741   1.400       .  A
C740        H749   1.084       .  S
C741        C742   1.411       .  A
C741        S745   1.803       .  S
C742        C743   1.401       .  A
C743        C744   1.398       .  A
C743        H750   1.084       .  S
C744        S746   1.802       .  S
S745        H748   1.405       .  S
S746        H747   1.406       .  S
C751        C752   1.407       .  A
C751        C756   1.419       .  A
C752        C753   1.398       .  A
C752        H761   1.084       .  S
C753        C754   1.411       .  A
C753        S757   1.804       .  S
C754        C755   1.400       .  A
C755        C756   1.400       .  A
C755        H762   1.084       .  S
C756        S758   1.795       .  S
S757        H760   1.407       .  S
S758        H759   1.407       .  S
C763        C764   1.405       .  A
C763        C768   1.413       .  A
C764        C765   1.404       .  A
C764        H773   1.084       .  S
C765        C766   1.416       .  A
C765        S769   1.803       .  S
C766        C767   1.404       .  A
C767        C768   1.399       .  A
C767        H774   1.083       .  S
C768        S770   1.803       .  S
S769        H772   1.406   1_455  S
S770        H771   1.407       .  S
C775        C776   1.402       .  A
C775        C780   1.411       .  A
C776        C777   1.405       .  A
C776        H785   1.083       .  S
C777        C778   1.420       .  A
C777        S781   1.804       .  S
C778        C779   1.409       .  A
C779        C780   1.399       .  A
C779        H786   1.084       .  S
C780        S782   1.805       .  S
S781        H784   1.407       .  S
S782        H783   1.407       .  S
C787        C788   1.404       .  A
C787        C792   1.413       .  A
C788        C789   1.401       .  A
C788        H797   1.084       .  S
C789        C790   1.411       .  A
C789        S793   1.802       .  S
C790        C791   1.401       .  A
C791        C792   1.398       .  A
C791        H798   1.084       .  S
C792        S794   1.802       .  S
S793        H796   1.406       .  S
S794        H795   1.407       .  S
C799        C800   1.406       .  A
C799        C804   1.414       .  A
C800        C801   1.402       .  A
C800        H809   1.084       .  S
C801        C802   1.413       .  A
C801        S805   1.804       .  S
C802        C803   1.402       .  A
C803        C804   1.397       .  A
C803        H810   1.084       .  S
C804        S806   1.803       .  S
S805        H808   1.407       .  S
S806        H807   1.406       .  S
C811        C812   1.403       .  A
C811        C816   1.412       .  A
C812        C813   1.399       .  A
C812        H821   1.084       .  S
C813        C814   1.414       .  A
C813        S817   1.808       .  S
C814        C815   1.403       .  A
C815        C816   1.400       .  A
C815        H822   1.084       .  S
C816        S818   1.802       .  S
S817        H820   1.399       .  S
S818        H819   1.407       .  S
C823        C824   1.405       .  A
C823        C828   1.414       .  A
C824        C825   1.398       .  A
C824        H833   1.084       .  S
C825        C826   1.409       .  A
C825        S829   1.804       .  S
C826        C827   1.402       .  A
C827        C828   1.400       .  A
C827        H834   1.084       .  S
C828        S830   1.802       .  S
S829        H832   1.406       .  S
S830        H831   1.407       .  S
C835        C836   1.403       .  A
C835        C840   1.411       .  A
C836        C837   1.398       .  A
C836        H845   1.084       .  S
C837        C838   1.415       .  A
C837        S841   1.803   1_565  S
C838        C839   1.406       .  A
C839        C840   1.401       .  A
C839        H846   1.084       .  S
C840        S842   1.802       .  S
S841        H844   1.407       .  S
S842        H843   1.407       .  S
C847        C848   1.404       .  A
C847        C852   1.418       .  A
C848        C849   1.399       .  A
C848        H857   1.084       .  S
C849        C850   1.412       .  A
C849        S853   1.803       .  S
C850        C851   1.403       .  A
C851        C852   1.404       .  A
C851        H858   1.084       .  S
C852        S854   1.802       .  S
S853        H856   1.406       .  S
S854        H855   1.407       .  S
C859        C860   1.405       .  A
C859        C864   1.414       .  A
C860        C861   1.399       .  A
C860        H869   1.083       .  S
C861        C862   1.413       .  A
C861        S865   1.806       .  S
C862        C863   1.404       .  A
C863        C864   1.402       .  A
C863        H870   1.084       .  S
C864        S866   1.803       .  S
S865        H868   1.404   1_455  S
S866        H867   1.407       .  S
C871        C872   1.404       .  A
C871        C876   1.416       .  A
C872        C873   1.404       .  A
C872        H881   1.084       .  S
C873        C874   1.416       .  A
C873        S877   1.801       .  S
C874        C875   1.404       .  A
C875        C876   1.401       .  A
C875        H882   1.083       .  S
C876        S878   1.803       .  S
S877        H880   1.407   1_455  S
S878        H879   1.407       .  S
C883        C884   1.403       .  A
C883        C888   1.413       .  A
C884        C885   1.398       .  A
C884        H893   1.084       .  S
C885        C886   1.413       .  A
C885        S889   1.803       .  S
C886        C887   1.406       .  A
C887        C888   1.401       .  A
C887        H894   1.082       .  S
C888        S890   1.805       .  S
S889        H892   1.407       .  S
S890        H891   1.404       .  S
C895        C896   1.406       .  A
C895        C900   1.416       .  A
C896        C897   1.399       .  A
C896        H905   1.084       .  S
C897        C898   1.411       .  A
C897        S901   1.804       .  S
C898        C899   1.401       .  A
C899        C900   1.399       .  A
C899        H906   1.084       .  S
C900        S902   1.798       .  S
S901        H904   1.406       .  S
S902        H903   1.407       .  S
C907        C908   1.404       .  A
C907        C912   1.416       .  A
C908        C909   1.398       .  A
C908        H917   1.084       .  S
C909        C910   1.413       .  A
C909        S913   1.804       .  S
C910        C911   1.403       .  A
C911        C912   1.403       .  A
C911        H918   1.084       .  S
C912        S914   1.802       .  S
S913        H916   1.407       .  S
S914        H915   1.407       .  S
C919        C920   1.404       .  A
C919        C924   1.417       .  A
C920        C921   1.399       .  A
C920        H929   1.084       .  S
C921        C922   1.411       .  A
C921        S925   1.804       .  S
C922        C923   1.401       .  A
C923        C924   1.401       .  A
C923        H930   1.084       .  S
C924        S926   1.801       .  S
S925        H928   1.406       .  S
S926        H927   1.407       .  S
C931        C932   1.407       .  A
C931        C936   1.415       .  A
C932        C933   1.400       .  A
C932        H941   1.082       .  S
C933        C934   1.411       .  A
C933        S937   1.805       .  S
C934        C935   1.403       .  A
C935        C936   1.400       .  A
C935        H942   1.084       .  S
C936        S938   1.801       .  S
S937        H940   1.405       .  S
S938        H939   1.407       .  S
C943        C944   1.403       .  A
C943        C948   1.414       .  A
C944        C945   1.399       .  A
C944        H953   1.084       .  S
C945        C946   1.417       .  A
C945        S949   1.804   1_565  S
C946        C947   1.407       .  A
C947        C948   1.404       .  A
C947        H954   1.084       .  S
C948        S950   1.801       .  S
S949        H952   1.407       .  S
S950        H951   1.406       .  S
C955        C956   1.405       .  A
C955        C960   1.417       .  A
C956        C957   1.399       .  A
C956        H965   1.084       .  S
C957        C958   1.413       .  A
C957        S961   1.804       .  S
C958        C959   1.400       .  A
C959        C960   1.398       .  A
C959        H966   1.084       .  S
C960        S962   1.798       .  S
S961        H964   1.406       .  S
S962        H963   1.407       .  S
C967        C968   1.405       .  A
C967        C972   1.412       .  A
C968        C969   1.399       .  A
C968        H977   1.082       .  S
C969        C970   1.413       .  A
C969        S973   1.805       .  S
C970        C971   1.403       .  A
C971        C972   1.397       .  A
C971        H978   1.084       .  S
C972        S974   1.803       .  S
S973        H976   1.405   1_556  S
S974        H975   1.407       .  S
C979        C980   1.403       .  A
C979        C984   1.414       .  A
C980        C981   1.403       .  A
C980        H989   1.084       .  S
C981        C982   1.418       .  A
C981        S985   1.803       .  S
C982        C983   1.406       .  A
C983        C984   1.399       .  A
C983        H990   1.084   1_556  S
C984        S986   1.804   1_556  S
S985        H988   1.404       .  S
S986        H987   1.407   1_554  S
C991        C992   1.404       .  A
C991        C996   1.417       .  A
C992        C993   1.399       .  A
C992       H1001   1.084       .  S
C993        C994   1.414       .  A
C993        S997   1.805   1_556  S
C994        C995   1.402       .  A
C995        C996   1.401       .  A
C995       H1002   1.084       .  S
C996        S998   1.799       .  S
S997       H1000   1.406       .  S
S998        H999   1.407       .  S
C1003      C1004   1.404       .  A
C1003      C1008   1.412       .  A
C1004      C1005   1.400       .  A
C1004      H1013   1.083       .  S
C1005      C1006   1.414       .  A
C1005      S1009   1.806       .  S
C1006      C1007   1.403       .  A
C1007      C1008   1.399       .  A
C1007      H1014   1.084       .  S
C1008      S1010   1.803       .  S
S1009      H1012   1.404       .  S
S1010      H1011   1.407       .  S
C1015      C1016   1.404       .  A
C1015      C1020   1.416       .  A
C1016      C1017   1.403       .  A
C1016      H1025   1.084       .  S
C1017      C1018   1.416       .  A
C1017      S1021   1.802       .  S
C1018      C1019   1.404       .  A
C1019      C1020   1.402       .  A
C1019      H1026   1.084       .  S
C1020      S1022   1.801       .  S
S1021      H1024   1.407       .  S
S1022      H1023   1.403       .  S
C1027      C1028   1.404       .  A
C1027      C1032   1.413       .  A
C1028      C1029   1.398       .  A
C1028      H1037   1.084       .  S
C1029      C1030   1.412       .  A
C1029      S1033   1.803       .  S
C1030      C1031   1.407       .  A
C1031      C1032   1.402       .  A
C1031      H1038   1.084       .  S
C1032      S1034   1.805       .  S
S1033      H1036   1.407       .  S
S1034      H1035   1.405       .  S
C1039      C1040   1.404       .  A
C1039      C1044   1.413       .  A
C1040      C1041   1.399       .  A
C1040      H1049   1.084       .  S
C1041      C1042   1.412       .  A
C1041      S1045   1.803       .  S
C1042      C1043   1.406       .  A
C1043      C1044   1.400       .  A
C1043      H1050   1.084       .  S
C1044      S1046   1.805       .  S
S1045      H1048   1.407       .  S
S1046      H1047   1.404       .  S
C1051      C1052   1.407       .  A
C1051      C1056   1.419       .  A
C1052      C1053   1.405       .  A
C1052      H1061   1.084       .  S
C1053      C1054   1.415       .  A
C1053      S1057   1.803       .  S
C1054      C1055   1.403       .  A
C1055      C1056   1.406       .  A
C1055      H1062   1.083       .  S
C1056      S1058   1.809       .  S
S1057      H1060   1.407       .  S
S1058      H1059   1.407       .  S
C1063      C1064   1.405       .  A
C1063      C1068   1.413       .  A
C1064      C1065   1.401       .  A
C1064      H1073   1.084       .  S
C1065      C1066   1.413       .  A
C1065      S1069   1.805       .  S
C1066      C1067   1.403       .  A
C1067      C1068   1.400       .  A
C1067      H1074   1.084       .  S
C1068      S1070   1.803       .  S
S1069      H1072   1.405   1_556  S
S1070      H1071   1.407       .  S
C1075      C1076   1.405       .  A
C1075      C1080   1.413       .  A
C1076      C1077   1.404       .  A
C1076      H1085   1.083       .  S
C1077      C1078   1.409       .  A
C1077      S1081   1.806       .  S
C1078      C1079   1.401       .  A
C1079      C1080   1.398       .  A
C1079      H1086   1.084       .  S
C1080      S1082   1.803       .  S
S1081      H1084   1.407       .  S
S1082      H1083   1.407       .  S
C1087      C1088   1.405       .  A
C1087      C1092   1.417       .  A
C1088      C1089   1.403       .  A
C1088      H1097   1.084       .  S
C1089      C1090   1.414       .  A
C1089      S1093   1.802       .  S
C1090      C1091   1.402       .  A
C1091      C1092   1.398       .  A
C1091      H1098   1.084       .  S
C1092      S1094   1.804       .  S
S1093      H1096   1.407   1_556  S
S1094      H1095   1.407       .  S
C1099      C1100   1.405       .  A
C1099      C1104   1.412       .  A
C1100      C1101   1.398       .  A
C1100      H1109   1.084       .  S
C1101      C1102   1.413       .  A
C1101      S1105   1.806       .  S
C1102      C1103   1.402       .  A
C1103      C1104   1.401       .  A
C1103      H1110   1.083       .  S
C1104      S1106   1.808       .  S
S1105      H1108   1.405   1_556  S
S1106      H1107   1.407       .  S
C1111      C1112   1.405       .  A
C1111      C1116   1.413       .  A
C1112      C1113   1.401       .  A
C1112      H1121   1.084       .  S
C1113      C1114   1.413       .  A
C1113      S1117   1.806       .  S
C1114      C1115   1.402       .  A
C1115      C1116   1.398       .  A
C1115      H1122   1.084       .  S
C1116      S1118   1.804       .  S
S1117      H1120   1.404       .  S
S1118      H1119   1.407       .  S
C1123      C1124   1.402       .  A
C1123      C1128   1.414       .  A
C1124      C1125   1.401       .  A
C1124      H1133   1.084       .  S
C1125      C1126   1.417       .  A
C1125      S1129   1.803       .  S
C1126      C1127   1.403       .  A
C1127      C1128   1.399       .  A
C1127      H1134   1.084       .  S
C1128      S1130   1.804       .  S
S1129      H1132   1.407   1_556  S
S1130      H1131   1.407       .  S
C1135      C1136   1.402       .  A
C1135      C1140   1.408       .  A
C1136      C1137   1.400       .  A
C1136      H1145   1.084       .  S
C1137      C1138   1.417       .  A
C1137      S1141   1.802       .  S
C1138      C1139   1.403       .  A
C1139      C1140   1.395       .  A
C1139      H1146   1.084       .  S
C1140      S1142   1.803       .  S
S1141      H1144   1.407       .  S
S1142      H1143   1.407       .  S
C1147      C1148   1.405       .  A
C1147      C1152   1.413       .  A
C1148      C1149   1.399       .  A
C1148      H1157   1.083       .  S
C1149      C1150   1.412       .  A
C1149      S1153   1.804       .  S
C1150      C1151   1.403       .  A
C1151      C1152   1.402       .  A
C1151      H1158   1.083       .  S
C1152      S1154   1.808       .  S
S1153      H1156   1.406       .  S
S1154      H1155   1.407       .  S
C1159      C1160   1.405       .  A
C1159      C1164   1.418       .  A
C1160      C1161   1.400       .  A
C1160      H1169   1.084       .  S
C1161      C1162   1.412       .  A
C1161      S1165   1.802       .  S
C1162      C1163   1.404       .  A
C1163      C1164   1.400       .  A
C1163      H1170   1.085       .  S
C1164      S1166   1.804       .  S
S1165      H1168   1.407       .  S
S1166      H1167   1.407       .  S
C1171      C1172   1.407       .  A
C1171      C1176   1.418       .  A
C1172      C1173   1.399       .  A
C1172      H1181   1.084       .  S
C1173      C1174   1.413       .  A
C1173      S1177   1.805       .  S
C1174      C1175   1.402       .  A
C1175      C1176   1.400       .  A
C1175      H1182   1.084       .  S
C1176      S1178   1.799       .  S
S1177      H1180   1.406   1_455  S
S1178      H1179   1.408       .  S
C1183      C1184   1.404       .  A
C1183      C1188   1.412       .  A
C1184      C1185   1.402       .  A
C1184      H1193   1.084       .  S
C1185      C1186   1.415       .  A
C1185      S1189   1.808       .  S
C1186      C1187   1.402       .  A
C1187      C1188   1.398       .  A
C1187      H1194   1.084       .  S
C1188      S1190   1.803       .  S
S1189      H1192   1.403       .  S
S1190      H1191   1.407       .  S
C1195      C1196   1.406       .  A
C1195      C1200   1.416       .  A
C1196      C1197   1.401       .  A
C1196      H1205   1.084       .  S
C1197      C1198   1.415       .  A
C1197      S1201   1.803       .  S
C1198      C1199   1.404       .  A
C1199      C1200   1.402       .  A
C1199      H1206   1.084       .  S
C1200      S1202   1.802       .  S
S1201      H1204   1.406       .  S
S1202      H1203   1.407       .  S
C1207      C1208   1.402       .  A
C1207      C1212   1.413       .  A
C1208      C1209   1.403       .  A
C1208      H1217   1.084       .  S
C1209      C1210   1.418       .  A
C1209      S1213   1.801       .  S
C1210      C1211   1.405       .  A
C1211      C1212   1.399       .  A
C1211      H1218   1.084       .  S
C1212      S1214   1.805       .  S
S1213      H1216   1.407       .  S
S1214      H1215   1.406   1_556  S
C1219      C1220   1.404       .  A
C1219      C1224   1.413       .  A
C1220      C1221   1.401       .  A
C1220      H1229   1.083       .  S
C1221      C1222   1.414       .  A
C1221      S1225   1.806       .  S
C1222      C1223   1.402       .  A
C1223      C1224   1.399       .  A
C1223      H1230   1.084       .  S
C1224      S1226   1.804       .  S
S1225      H1228   1.404   1_455  S
S1226      H1227   1.407       .  S
C1231      C1232   1.404       .  A
C1231      C1236   1.414       .  A
C1232      C1233   1.399       .  A
C1232      H1241   1.084       .  S
C1233      C1234   1.414       .  A
C1233      S1237   1.804   1_455  S
C1234      C1235   1.404       .  A
C1235      C1236   1.402       .  A
C1235      H1242   1.084       .  S
C1236      S1238   1.803       .  S
S1237      H1240   1.407       .  S
S1238      H1239   1.407       .  S
C1243      C1244   1.406       .  A
C1243      C1248   1.414       .  A
C1244      C1245   1.401       .  A
C1244      H1253   1.082       .  S
C1245      C1246   1.413       .  A
C1245      S1249   1.806       .  S
C1246      C1247   1.403       .  A
C1247      C1248   1.398       .  A
C1247      H1254   1.084       .  S
C1248      S1250   1.803       .  S
S1249      H1252   1.404   1_556  S
S1250      H1251   1.407       .  S
C1255      C1256   1.407       .  A
C1255      C1260   1.421       .  A
C1256      C1257   1.399       .  A
C1256      H1265   1.084       .  S
C1257      C1258   1.411       .  A
C1257      S1261   1.804       .  S
C1258      C1259   1.400       .  A
C1259      C1260   1.400       .  A
C1259      H1266   1.084       .  S
C1260      S1262   1.799       .  S
S1261      H1264   1.407       .  S
S1262      H1263   1.408       .  S
C1267      C1268   1.405       .  A
C1267      C1272   1.414       .  A
C1268      C1269   1.403       .  A
C1268      H1277   1.084       .  S
C1269      C1270   1.415       .  A
C1269      S1273   1.802       .  S
C1270      C1271   1.405       .  A
C1271      C1272   1.398       .  A
C1271      H1278   1.084       .  S
C1272      S1274   1.805   1_556  S
S1273      H1276   1.407       .  S
S1274      H1275   1.407       .  S
C1279      C1280   1.404       .  A
C1279      C1284   1.416       .  A
C1280      C1281   1.398       .  A
C1280      H1289   1.084       .  S
C1281      C1282   1.411       .  A
C1281      S1285   1.803       .  S
C1282      C1283   1.402       .  A
C1283      C1284   1.401       .  A
C1283      H1290   1.084       .  S
C1284      S1286   1.802       .  S
S1285      H1288   1.406       .  S
S1286      H1287   1.407       .  S
C1291      C1292   1.405       .  A
C1291      C1296   1.413       .  A
C1292      C1293   1.400       .  A
C1292      H1301   1.083       .  S
C1293      C1294   1.412       .  A
C1293      S1297   1.807       .  S
C1294      C1295   1.403       .  A
C1295      C1296   1.400       .  A
C1295      H1302   1.084       .  S
C1296      S1298   1.801       .  S
S1297      H1300   1.403       .  S
S1298      H1299   1.407       .  S
C1303      C1304   1.404       .  A
C1303      C1308   1.414       .  A
C1304      C1305   1.396       .  A
C1304      H1313   1.084       .  S
C1305      C1306   1.413       .  A
C1305      S1309   1.803       .  S
C1306      C1307   1.405       .  A
C1307      C1308   1.403       .  A
C1307      H1314   1.084       .  S
C1308      S1310   1.801       .  S
S1309      H1312   1.407       .  S
S1310      H1311   1.406       .  S
C1315      C1316   1.405       .  A
C1315      C1320   1.416       .  A
C1316      C1317   1.397       .  A
C1316      H1325   1.084       .  S
C1317      C1318   1.410       .  A
C1317      S1321   1.804       .  S
C1318      C1319   1.402       .  A
C1319      C1320   1.400       .  A
C1319      H1326   1.084       .  S
C1320      S1322   1.798       .  S
S1321      H1324   1.406   1_455  S
S1322      H1323   1.407       .  S
C1327      C1328   1.402       .  A
C1327      C1332   1.411       .  A
C1328      C1329   1.398       .  A
C1328      H1337   1.084       .  S
C1329      C1330   1.415       .  A
C1329      S1333   1.803       .  S
C1330      C1331   1.406       .  A
C1331      C1332   1.399       .  A
C1331      H1338   1.083       .  S
C1332      S1334   1.805       .  S
S1333      H1336   1.407       .  S
S1334      H1335   1.405       .  S
C1339      C1340   1.409       .  A
C1339      C1344   1.422       .  A
C1340      C1341   1.399       .  A
C1340      H1349   1.083       .  S
C1341      C1342   1.409       .  A
C1341      S1345   1.804       .  S
C1342      C1343   1.401       .  A
C1343      C1344   1.404       .  A
C1343      H1350   1.084       .  S
C1344      S1346   1.802       .  S
S1345      H1348   1.406       .  S
S1346      H1347   1.408       .  S
C1351      C1352   1.402       .  A
C1351      C1356   1.416       .  A
C1352      C1353   1.397       .  A
C1352      H1361   1.084       .  S
C1353      C1354   1.414       .  A
C1353      S1357   1.803       .  S
C1354      C1355   1.405       .  A
C1355      C1356   1.402       .  A
C1355      H1362   1.084       .  S
C1356      S1358   1.806       .  S
S1357      H1360   1.407       .  S
S1358      H1359   1.404       .  S
C1363      C1364   1.404       .  A
C1363      C1368   1.414       .  A
C1364      C1365   1.400       .  A
C1364      H1373   1.084       .  S
C1365      C1366   1.413       .  A
C1365      S1369   1.805       .  S
C1366      C1367   1.402       .  A
C1367      C1368   1.398       .  A
C1367      H1374   1.084       .  S
C1368      S1370   1.804       .  S
S1369      H1372   1.405       .  S
S1370      H1371   1.407       .  S
C1375      C1376   1.405       .  A
C1375      C1380   1.417       .  A
C1376      C1377   1.400       .  A
C1376      H1385   1.084       .  S
C1377      C1378   1.413       .  A
C1377      S1381   1.803       .  S
C1378      C1379   1.403       .  A
C1379      C1380   1.400       .  A
C1379      H1386   1.084       .  S
C1380      S1382   1.803       .  S
S1381      H1384   1.407       .  S
S1382      H1383   1.407       .  S
C1387      C1388   1.403       .  A
C1387      C1392   1.418       .  A
C1388      C1389   1.396       .  A
C1388      H1397   1.084       .  S
C1389      C1390   1.411       .  A
C1389      S1393   1.804       .  S
C1390      C1391   1.403       .  A
C1391      C1392   1.403       .  A
C1391      H1398   1.084       .  S
C1392      S1394   1.801       .  S
S1393      H1396   1.406       .  S
S1394      H1395   1.407       .  S
C1399      C1400   1.403       .  A
C1399      C1404   1.412       .  A
C1400      C1401   1.396       .  A
C1400      H1409   1.083       .  S
C1401      C1402   1.411       .  A
C1401      S1405   1.804       .  S
C1402      C1403   1.402       .  A
C1403      C1404   1.399       .  A
C1403      H1410   1.084       .  S
C1404      S1406   1.802       .  S
S1405      H1408   1.402       .  S
S1406      H1407   1.406       .  S
C1411      C1412   1.405       .  A
C1411      C1416   1.414       .  A
C1412      C1413   1.398       .  A
C1412      H1421   1.084       .  S
C1413      C1414   1.415       .  A
C1413      S1417   1.804       .  S
C1414      C1415   1.407       .  A
C1415      C1416   1.404       .  A
C1415      H1422   1.084       .  S
C1416      S1418   1.802       .  S
S1417      H1420   1.407       .  S
S1418      H1419   1.406       .  S
C1423      C1424   1.405       .  A
C1423      C1428   1.413       .  A
C1424      C1425   1.403       .  A
C1424      H1433   1.084       .  S
C1425      C1426   1.414       .  A
C1425      S1429   1.805       .  S
C1426      C1427   1.402       .  A
C1427      C1428   1.397       .  A
C1427      H1434   1.084       .  S
C1428      S1430   1.804       .  S
S1429      H1432   1.405   1_556  S
S1430      H1431   1.407       .  S
C1435      C1436   1.405       .  A
C1435      C1440   1.415       .  A
C1436      C1437   1.399       .  A
C1436      H1445   1.084       .  S
C1437      C1438   1.412       .  A
C1437      S1441   1.804       .  S
C1438      C1439   1.403       .  A
C1439      C1440   1.399       .  A
C1439      H1446   1.084       .  S
C1440      S1442   1.804       .  S
S1441      H1444   1.405   1_455  S
S1442      H1443   1.407       .  S
C1447      C1448   1.401       .  A
C1447      C1452   1.411       .  A
C1448      C1449   1.403       .  A
C1448      H1457   1.084       .  S
C1449      C1450   1.420       .  A
C1449      S1453   1.800       .  S
C1450      C1451   1.407       .  A
C1451      C1452   1.397       .  A
C1451      H1458   1.083   1_556  S
C1452      S1454   1.804       .  S
S1453      H1456   1.407       .  S
S1454      H1455   1.406       .  S
