geometry optimzed in LAMMPS
_audit_creation_date              2020-12-01 
_audit_creation_method            'lammps2cif' 
_symmetry_space_group_name_H-M    'P1' 
_symmetry_Int_Tables_number       1 
_symmetry_cell_setting            triclinic 
loop_ 
_symmetry_equiv_pos_as_xyz 
  x,y,z 
_cell_length_a                    35.62837989 
_cell_length_b                    35.6256747463419 
_cell_length_c                    35.87628777510248 
_cell_angle_alpha                 89.98875815074888 
_cell_angle_beta                  90.01447409540044 
_cell_angle_gamma                 90.0073901390817 
loop_ 
_atom_site_label 
_atom_site_type_symbol 
_atom_site_fract_x 
_atom_site_fract_y 
_atom_site_fract_z 
_atom_site_charge 
O1          O  0.48904721  0.41036408  0.56767464    -0.73800
O2          O  0.07764340  0.39873094  0.49641030    -0.74800
O3          O  0.05712605  0.37195771  0.56892749    -0.63400
O4          O  0.00525245  0.43410390  0.49518251    -0.71800
O5          O  0.03058171  0.98547147  0.51982102    -0.71300
O6          O  0.08121111  0.42153764  0.59801999    -0.62600
O7          O  0.10266079  0.44879936  0.52344921    -0.75100
O8          O  0.01486026  0.46144960  0.59237636    -0.73900
Cu9        Cu  0.03168561  0.40209866  0.53090322     1.04600
Cu10       Cu  0.05879573  0.45619980  0.55881844     1.04300
C11         C  0.48902339  0.43689271  0.59188160     0.92400
C12         C  0.10429064  0.42282551  0.49891216     0.91600
C13         C  0.07309926  0.38652538  0.59706616     0.83700
C14         C  0.00755536  0.46955490  0.49735129     0.90000
O15         O  0.40232162  0.46311537  0.69777567    -0.73800
O16         O  0.38968025  0.37528697  0.62887115    -0.74800
O17         O  0.36563674  0.39103208  0.70141234    -0.63400
O18         O  0.42960715  0.44164111  0.62323097    -0.71800
O19         O  0.47917517  0.41757714  0.65236383    -0.71300
O20         O  0.41698925  0.36570675  0.72608435    -0.62600
O21         O  0.44075928  0.34948916  0.65360402    -0.75100
O22         O  0.45237096  0.43810838  0.72486309    -0.73900
Cu23       Cu  0.39492756  0.41923485  0.66241856     1.04600
Cu24       Cu  0.44901383  0.39213835  0.69037590     1.04300
C25         C  0.42828102  0.46475258  0.72233624     0.92400
C26         C  0.41423871  0.34945829  0.62937914     0.91600
C27         C  0.38154141  0.36801576  0.72390531     0.83700
C28         C  0.46461784  0.43353997  0.62420922     0.90000
O29         O  0.08828745  0.24845795  0.69782095    -0.73800
O30         O  0.10099166  0.33628624  0.62891552    -0.74800
O31         O  0.12497508  0.32053206  0.70146990    -0.63400
O32         O  0.06106524  0.26993684  0.62325066    -0.71800
O33         O  0.01148634  0.29402144  0.65231759    -0.71300
O34         O  0.07361264  0.34585149  0.72609645    -0.62600
O35         O  0.04991267  0.36209800  0.65360058    -0.75100
O36         O  0.03821789  0.27346005  0.72484272    -0.73900
Cu37       Cu  0.09571406  0.29233690  0.66246355     1.04600
Cu38       Cu  0.04161544  0.31943980  0.69035973     1.04300
C39         C  0.06230592  0.24681390  0.72234494     0.92400
C40         C  0.07644655  0.36212664  0.62940362     0.91600
C41         C  0.10906078  0.34355019  0.72393390     0.83700
C42         C  0.02605786  0.27804850  0.62419058     0.90000
O43         O  0.50163686  0.30121640  0.56763851    -0.73800
O44         O  0.41299867  0.31285956  0.49639607    -0.74800
O45         O  0.43356600  0.33963137  0.56890620    -0.63400
O46         O  0.48538829  0.27747590  0.49515763    -0.71800
O47         O  0.46006979  0.22611077  0.51981754    -0.71300
O48         O  0.40949423  0.29004709  0.59800806    -0.62600
O49         O  0.38800180  0.26278861  0.52345822    -0.75100
O50         O  0.47583367  0.25012782  0.59235445    -0.73900
Cu51       Cu  0.45897934  0.30948774  0.53087716     1.04600
Cu52       Cu  0.43188398  0.25538485  0.55881166     1.04300
C53         C  0.50166726  0.27468591  0.59185244     0.92400
C54         C  0.38635543  0.28876314  0.49891467     0.91600
C55         C  0.41760139  0.32506096  0.59704759     0.83700
C56         C  0.48308459  0.24202436  0.49733867     0.90000
O57         O  0.37498282  0.32054147  0.76983114    -0.73800
O58         O  0.31103390  0.26991143  0.84801319    -0.74800
O59         O  0.33830890  0.24845444  0.77346549    -0.63400
O60         O  0.35094921  0.33627229  0.84237852    -0.71800
O61         O  0.29986610  0.36206999  0.81765349    -0.71300
O62         O  0.28825032  0.27345570  0.74638930    -0.62600
O63         O  0.26145929  0.29397760  0.81889278    -0.75100
O64         O  0.32362625  0.34586426  0.74516477    -0.73900
Cu65       Cu  0.34570304  0.29232986  0.80882507     1.04600
Cu66       Cu  0.29161004  0.31942435  0.78087788     1.04300
C67         C  0.35907461  0.34355786  0.74734083     0.92400
C68         C  0.27602237  0.27800893  0.84704133     0.91600
C69         C  0.31234250  0.24681315  0.74891307     0.83700
C70         C  0.32638804  0.36209830  0.84187711     0.90000
O71         O  0.18351832  0.33957775  0.90232263    -0.73800
O72         O  0.23538597  0.27743958  0.97607218    -0.74800
O73         O  0.25159781  0.30117499  0.90357978    -0.63400
O74         O  0.16299832  0.31280981  0.97483448    -0.71800
O75         O  0.13798320  0.26273874  0.94779764    -0.71300
O76         O  0.22578725  0.25008899  0.87887624    -0.62600
O77         O  0.21006109  0.22606943  0.95143456    -0.75100
O78         O  0.15943208  0.28999794  0.87323055    -0.73900
Cu79       Cu  0.20895741  0.30944054  0.94034722     1.04600
Cu80       Cu  0.18184958  0.25533763  0.91243231     1.04300
C81         C  0.16753867  0.32501135  0.87418751     0.92400
C82         C  0.23308086  0.24198927  0.97390929     0.91600
C83         C  0.25162224  0.27464798  0.87937141     0.83700
C84         C  0.13635144  0.28871545  0.97233149     0.90000
O85         O  0.20235092  0.43811659  0.74643943    -0.73800
O86         O  0.19069971  0.34945859  0.81765439    -0.74800
O87         O  0.16696529  0.36572538  0.74517912    -0.63400
O88         O  0.22911650  0.41754051  0.81894900    -0.71800
O89         O  0.17954399  0.44160643  0.84804121    -0.71300
O90         O  0.11560653  0.39103142  0.76982668    -0.62600
O91         O  0.13962378  0.37525264  0.84236430    -0.75100
O92         O  0.15228887  0.46310935  0.77348374    -0.73900
Cu93       Cu  0.19897414  0.39212945  0.78090951     1.04600
Cu94       Cu  0.14488131  0.41921644  0.80883157     1.04300
C95         C  0.17826089  0.46475928  0.74894973     0.92400
C96         C  0.16417341  0.34941661  0.84185858     0.91600
C97         C  0.13151750  0.36802082  0.74735279     0.83700
C98         C  0.21455281  0.43350149  0.84708703     0.90000
O99         O  0.26479067  0.46141579  0.87891332    -0.73800
O100        O  0.35263178  0.44875905  0.94780665    -0.74800
O101        O  0.33113472  0.42150377  0.87325597    -0.63400
O102        O  0.28056346  0.98543627  0.95145048    -0.71800
O103        O  0.25524880  0.43407147  0.97611475    -0.71300
O104        O  0.30706201  0.37191715  0.90235317    -0.62600
O105        O  0.32763900  0.39868480  0.97486593    -0.75100
O106        O  0.23898847  0.41032950  0.90363410    -0.73900
Cu107      Cu  0.30874558  0.45616200  0.91245436     1.04600
Cu108      Cu  0.28165295  0.40205837  0.94038941     1.04300
C109        C  0.23895497  0.43685947  0.87941948     0.92400
C110        C  0.35428107  0.42278287  0.97234882     0.91600
C111        C  0.32302626  0.38649049  0.87421261     0.83700
C112        C  0.25755260  0.46952333  0.97393366     0.90000
O113        O  0.33118151  0.17154887  0.09804104    -0.73800
O114        O  0.28056336  0.23546016  0.01982006    -0.74800
O115        O  0.26482569  0.21145164  0.09237717    -0.63400
O116        O  0.35264128  0.19879662  0.02347692    -0.71800
O117        O  0.32763416  0.14872079  0.99644109    -0.71300
O118        O  0.23902167  0.16036068  0.06767655    -0.62600
O119        O  0.25524326  0.18408718  0.99518318    -0.75100
O120        O  0.30710261  0.12196334  0.06895219    -0.73900
Cu121      Cu  0.30876878  0.20620039  0.05883097     1.04600
Cu122      Cu  0.28166828  0.15209238  0.03091810     1.04300
C123        C  0.32307767  0.13653479  0.09708728     0.92400
C124        C  0.25754687  0.21953786  0.99734383     0.91600
C125        C  0.23899293  0.18689056  0.09188165     0.83700
C126        C  0.35427947  0.17281657  0.99894742     0.90000
O127        O  0.22915781  0.16756236  0.15235956    -0.73800
O128        O  0.16699699  0.11568128  0.22609317    -0.74800
O129        O  0.19075573  0.09946837  0.15360529    -0.63400
O130        O  0.20237072  0.18808833  0.22486285    -0.71800
O131        O  0.15231017  0.21308732  0.19778837    -0.71300
O132        O  0.13967281  0.12526226  0.12887634    -0.62600
O133        O  0.11563907  0.14099980  0.20142497    -0.75100
O134        O  0.17958206  0.19162700  0.12323946    -0.73900
Cu135      Cu  0.19901058  0.14211772  0.19037706     1.04600
Cu136      Cu  0.14491637  0.16920887  0.16242902     1.04300
C137        C  0.21459350  0.18352975  0.12421109     0.92400
C138        C  0.13154850  0.11798826  0.22391875     0.91600
C139        C  0.16423509  0.09943688  0.12938035     0.83700
C140        C  0.17827754  0.21472989  0.22234029     0.90000
O141        O  0.33833153  0.49845137  0.19780020    -0.73800
O142        O  0.35099545  0.08630157  0.12891822    -0.74800
O143        O  0.37500741  0.07052990  0.20145897    -0.63400
O144        O  0.31108316  0.01994288  0.12324358    -0.71800
O145        O  0.26150527  0.04400672  0.15232880    -0.71300
O146        O  0.32364571  0.09583528  0.22610117    -0.62600
O147        O  0.29991476  0.11209324  0.15362127    -0.75100
O148        O  0.28826494  0.02344115  0.22483963    -0.73900
Cu149      Cu  0.34573895  0.04234081  0.16245302     1.04600
Cu150      Cu  0.29164127  0.06942546  0.19036867     1.04300
C151        C  0.31235640  0.49680000  0.22233021     0.92400
C152        C  0.32644266  0.11213476  0.12941914     0.91600
C153        C  0.35909392  0.09354003  0.22393161     0.83700
C154        C  0.27607304  0.02804162  0.12419510     0.90000
O155        O  0.25164479  0.05119730  0.06764055    -0.70600
O156        O  0.16300682  0.06282752  0.99639676    -0.74800
O157        O  0.18357105  0.08960845  0.06890777    -0.63400
O158        O  0.23539516  0.02744039  0.99516479    -0.71800
O159        O  0.21008150  0.47607783  0.01983458    -0.71300
O160        O  0.15949154  0.04002670  0.09800733    -0.62600
O161        O  0.13801056  0.51275496  0.02345619    -0.75100
O162        O  0.22583932  0.50011688  0.09237045    -0.73900
Cu163      Cu  0.20898612  0.05945998  0.03087999     1.04600
Cu164      Cu  0.18189028  0.50536033  0.05881971     1.04300
C165        C  0.25167474  0.02467390  0.09186167     0.92400
C166        C  0.13636509  0.03872929  0.99891151     0.91600
C167        C  0.16760054  0.07503994  0.09704743     0.83700
C168        C  0.23309326  0.49198872  0.99735078     0.90000
O169        O  0.44070888  0.09946586  0.31768127    -0.73800
O170        O  0.45239234  0.18809891  0.24643610    -0.74800
O171        O  0.47913219  0.16754526  0.31895606    -0.63400
O172        O  0.41699830  0.11570898  0.24518844    -0.71800
O173        O  0.36563676  0.14102661  0.26981845    -0.71300
O174        O  0.42955566  0.19163070  0.34802641    -0.62600
O175        O  0.40232391  0.21310164  0.27345988    -0.75100
O176        O  0.38963226  0.12527707  0.34237184    -0.73900
Cu177      Cu  0.44899953  0.14212253  0.28092021     1.04600
Cu178      Cu  0.39490268  0.16922506  0.30882035     1.04300
C179        C  0.41417802  0.09943716  0.34188122     0.92400
C180        C  0.42830464  0.21474482  0.24893490     0.91600
C181        C  0.46456366  0.18352272  0.34708207     0.83700
C182        C  0.38155028  0.11800969  0.24735251     0.90000
O183        O  0.05705905  0.12194797  0.40235942    -0.73800
O184        O  0.00524520  0.18410985  0.47610860    -0.74800
O185        O  0.48898957  0.16036439  0.40363370    -0.63400
O186        O  0.07763074  0.14872156  0.47486636    -0.71800
O187        O  0.10262816  0.19879282  0.44780504    -0.71300
O188        O  0.01479366  0.21144756  0.37890742    -0.62600
O189        O  0.03056002  0.23547359  0.45144209    -0.75100
O190        O  0.08113554  0.17152890  0.37325601    -0.73900
Cu191      Cu  0.03164949  0.15209456  0.44038938     1.04600
Cu192      Cu  0.05874532  0.20619488  0.41245014     1.04300
C193        C  0.07302680  0.13651548  0.37421812     0.92400
C194        C  0.00754733  0.21956128  0.47392402     0.91600
C195        C  0.48895844  0.18689109  0.37941612     0.83700
C196        C  0.10427434  0.17281735  0.47234774     0.90000
O197        O  0.06102648  0.01993050  0.34805192    -0.73800
O198        O  0.12498988  0.07052677  0.26985881    -0.74800
O199        O  0.10095015  0.08628585  0.34239972    -0.63400
O200        O  0.08830699  0.49844495  0.27350591    -0.71800
O201        O  0.03825448  0.02344733  0.24642042    -0.71300
O202        O  0.04987075  0.11207979  0.31766385    -0.62600
O203        O  0.07363568  0.09584693  0.24518466    -0.75100
O204        O  0.01145667  0.04399248  0.31892040    -0.73900
Cu205      Cu  0.09570234  0.04233129  0.30885843     1.04600
Cu206      Cu  0.04161424  0.06942339  0.28090049     1.04300
C207        C  0.02601596  0.02803272  0.34707571     0.92400
C208        C  0.10908374  0.09353717  0.24736148     0.91600
C209        C  0.07639140  0.11211437  0.34188870     0.83700
C210        C  0.06234619  0.49680468  0.24894651     0.90000
O211        O  0.48537691  0.02746093  0.47610161    -0.73800
O212        O  0.43349856  0.08960545  0.40235749    -0.74800
O213        O  0.41297947  0.06282417  0.47487055    -0.63400
O214        O  0.50158307  0.05120737  0.40361060    -0.71800
O215        O  0.47577799  0.50011807  0.37890830    -0.71300
O216        O  0.38797023  0.51275506  0.44782541    -0.62600
O217        O  0.40942338  0.04002359  0.37326017    -0.75100
O218        O  0.46005295  0.47609238  0.45146019    -0.73900
Cu219      Cu  0.45894116  0.05946526  0.44038103     1.04600
Cu220      Cu  0.43183950  0.50536209  0.41246161     1.04300
C221        C  0.48307689  0.49200980  0.47393148     0.92400
C222        C  0.41752872  0.07503719  0.37421730     0.91600
C223        C  0.38633464  0.03872735  0.47236351     0.83700
C224        C  0.50161129  0.02467852  0.37940370     0.90000
O225        O  0.28825365  0.18809919  0.72483953    -0.73800
O226        O  0.29989581  0.09947138  0.65361182    -0.74800
O227        O  0.32362138  0.11570379  0.72610272    -0.63400
O228        O  0.26149560  0.16755495  0.65232722    -0.71800
O229        O  0.31107589  0.19163390  0.62323874    -0.71300
O230        O  0.37498714  0.14102831  0.70146558    -0.62600
O231        O  0.35098172  0.12527826  0.62891355    -0.75100
O232        O  0.33832203  0.21310804  0.69780091    -0.73900
Cu233      Cu  0.29162564  0.14212538  0.69036576     1.04600
Cu234      Cu  0.34572701  0.16922827  0.66245263     1.04300
C235        C  0.31234621  0.21474729  0.72233100     0.92400
C236        C  0.32642506  0.09944155  0.62940981     0.91600
C237        C  0.35906937  0.11800846  0.72393990     0.83700
C238        C  0.27606500  0.18352788  0.62419112     0.90000
O239        O  0.13799882  0.19879579  0.52346022    -0.73800
O240        O  0.22583753  0.21144915  0.59235571    -0.74800
O241        O  0.21007596  0.23546660  0.51981368    -0.63400
O242        O  0.15947890  0.17154283  0.59801743    -0.71800
O243        O  0.18353778  0.12195740  0.56893450    -0.71300
O244        O  0.23537580  0.18409896  0.49517082    -0.62600
O245        O  0.25162422  0.16036196  0.56765357    -0.75100
O246        O  0.16298132  0.14872152  0.49642168    -0.73900
Cu247      Cu  0.18188268  0.20619814  0.55881361     1.04600
Cu248      Cu  0.20896119  0.15209315  0.53089888     1.04300
C249        C  0.13634497  0.17281782  0.49892943     0.92400
C250        C  0.25166617  0.18689183  0.59185754     0.91600
C251        C  0.23308386  0.21955014  0.49734194     0.83700
C252        C  0.16757376  0.13652939  0.59706680     0.90000
O253        O  0.17956576  0.01994444  0.62326413    -0.73800
O254        O  0.11561259  0.07054538  0.70143042    -0.74800
O255        O  0.13965174  0.08629490  0.62889273    -0.63400
O256        O  0.15229143  0.49846998  0.69781542    -0.71800
O257        O  0.20235628  0.02347536  0.72487947    -0.71300
O258        O  0.19072539  0.11210872  0.65362605    -0.62600
O259        O  0.16696823  0.09586796  0.72610290    -0.75100
O260        O  0.22913970  0.04403235  0.65236853    -0.73900
Cu261      Cu  0.14489658  0.04234787  0.66244799     1.04600
Cu262      Cu  0.19898847  0.06945310  0.69039162     1.04300
C263        C  0.21457629  0.02805610  0.62422757     0.92400
C264        C  0.13151939  0.09356180  0.72391591     0.91600
C265        C  0.16420558  0.11213322  0.62940168     0.83700
C266        C  0.17826206  0.49682937  0.72236367     0.90000
O267        O  0.35262609  0.51275796  0.52349750    -0.73800
O268        O  0.26479633  0.50012119  0.59240074    -0.74800
O269        O  0.28053986  0.47609062  0.51984949    -0.63400
O270        O  0.33116018  0.04002621  0.59805015    -0.71800
O271        O  0.30710533  0.08960930  0.56893066    -0.71300
O272        O  0.25522950  0.02745770  0.49518609    -0.62600
O273        O  0.23901283  0.05121279  0.56767501    -0.75100
O274        O  0.32763316  0.06282582  0.49642757    -0.73900
Cu275      Cu  0.30874536  0.50536371  0.55885287     1.04600
Cu276      Cu  0.28166326  0.05946654  0.53090841     1.04300
C277        C  0.35427148  0.03872901  0.49894844     0.92400
C278        C  0.23897548  0.02468864  0.59189697     0.91600
C279        C  0.25753318  0.49200668  0.49735536     0.83700
C280        C  0.32306639  0.07504085  0.59708001     0.90000
O281        O  0.10094811  0.12525130  0.84235881    -0.73800
O282        O  0.08826993  0.21309985  0.77347742    -0.74800
O283        O  0.06102026  0.19158892  0.84802500    -0.63400
O284        O  0.12496037  0.14103368  0.76982260    -0.71800
O285        O  0.07360377  0.11570746  0.74515559    -0.71300
O286        O  0.01144300  0.16750569  0.81892195    -0.62600
O287        O  0.03820573  0.18809594  0.74641113    -0.75100
O288        O  0.04987003  0.09943723  0.81763519    -0.73900
Cu289      Cu  0.09568243  0.16920951  0.80882359     1.04600
Cu290      Cu  0.04158856  0.14210469  0.78088357     1.04300
C291        C  0.07639871  0.09940938  0.84185080     0.92400
C292        C  0.06229714  0.21474445  0.74893223     0.91600
C293        C  0.02601097  0.18347256  0.84706560     0.83700
C294        C  0.10905257  0.11801894  0.74733615     0.90000
O295        O  0.41298032  0.14871220  0.97488981    -0.73800
O296        O  0.50158375  0.16030836  0.90361999    -0.74800
O297        O  0.48538920  0.18407905  0.97610853    -0.63400
O298        O  0.43348891  0.12190987  0.90238785    -0.71800
O299        O  0.40943656  0.17149102  0.87326336    -0.71300
O300        O  0.46007102  0.23544150  0.95144460    -0.62600
O301        O  0.47579690  0.21140086  0.87889900    -0.75100
O302        O  0.38798425  0.19877395  0.94781104    -0.73900
Cu303      Cu  0.45894267  0.15206167  0.94039890     1.04600
Cu304      Cu  0.43185702  0.20616125  0.91245159     1.04300
C305        C  0.38634196  0.17280858  0.97236524     0.92400
C306        C  0.50161703  0.18683363  0.87939891     0.91600
C307        C  0.48308742  0.21952980  0.97393224     0.83700
C308        C  0.41752791  0.13647580  0.87423682     0.90000
O309        O  0.38962630  0.08623010  0.84239745    -0.73800
O310        O  0.40229428  0.49843533  0.77346128    -0.74800
O311        O  0.42954980  0.01988047  0.84803187    -0.63400
O312        O  0.36561035  0.07051080  0.76983770    -0.71800
O313        O  0.41697057  0.09584893  0.74520336    -0.71300
O314        O  0.47911852  0.04398864  0.81894801    -0.62600
O315        O  0.45235666  0.02346490  0.74643094    -0.75100
O316        O  0.44069826  0.11206168  0.81769679    -0.73900
Cu317      Cu  0.39488472  0.04229696  0.80883402     1.04600
Cu318      Cu  0.44897601  0.06942367  0.78092493     1.04300
C319        C  0.41417416  0.11207552  0.84190445     0.92400
C320        C  0.42826896  0.49681117  0.74892862     0.91600
C321        C  0.46455815  0.02799940  0.84707909     0.83700
C322        C  0.38152334  0.09353872  0.74736791     0.90000
O323        O  0.07765648  0.06282118  0.97483453    -0.73800
O324        O  0.98900672  0.05116808  0.90361133    -0.74800
O325        O  0.00526601  0.02744051  0.97609140    -0.63400
O326        O  0.05708723  0.08958005  0.90232208    -0.71800
O327        O  0.08114446  0.03999756  0.87323314    -0.71300
O328        O  0.03056626  0.47607248  0.95144922    -0.62600
O329        O  0.01479278  0.50008124  0.87890826    -0.75100
O330        O  0.10264224  0.51274978  0.94779443    -0.73900
Cu331      Cu  0.03167326  0.05944391  0.94036073     1.04600
Cu332      Cu  0.05875267  0.50534049  0.91244424     1.04300
C333        C  0.10429501  0.03872685  0.97232651     0.92400
C334        C  0.48896202  0.02463640  0.87940936     0.91600
C335        C  0.00755805  0.49198963  0.97392015     0.83700
C336        C  0.07304354  0.07500969  0.87418491     0.90000
O337        O  0.15230154  0.24843124  0.27345806    -0.73800
O338        O  0.13964749  0.33625464  0.34235730    -0.74800
O339        O  0.11563505  0.32051284  0.26980609    -0.63400
O340        O  0.17955645  0.26989980  0.34802208    -0.71800
O341        O  0.22913428  0.29397894  0.31892992    -0.71300
O342        O  0.16699941  0.34583972  0.24516874    -0.62600
O343        O  0.19073218  0.36206324  0.31765869    -0.75100
O344        O  0.20236685  0.27344332  0.24641707    -0.73900
Cu345      Cu  0.14490002  0.29230792  0.30881290     1.04600
Cu346      Cu  0.19899895  0.31941308  0.28089800     1.04300
C347        C  0.17827434  0.24679483  0.24892448     0.92400
C348        C  0.16420333  0.36209216  0.34186130     0.91600
C349        C  0.13155136  0.34353630  0.24733461     0.83700
C350        C  0.21456728  0.27800671  0.34706761     0.90000
O351        O  0.23900360  0.30118110  0.40360431    -0.73800
O352        O  0.32764532  0.31284925  0.47483579    -0.74800
O353        O  0.30708300  0.33959717  0.40232054    -0.63400
O354        O  0.25525672  0.27745882  0.47609126    -0.71800
O355        O  0.28056245  0.22609187  0.45145299    -0.71300
O356        O  0.33115429  0.29001317  0.37324495    -0.62600
O357        O  0.35263500  0.26277436  0.44780504    -0.75100
O358        O  0.26480111  0.25009759  0.37890615    -0.73900
Cu359      Cu  0.28166536  0.30946348  0.44035885     1.04600
Cu360      Cu  0.30875362  0.25535981  0.41245076     1.04300
C361        C  0.23896714  0.27464949  0.37940205     0.92400
C362        C  0.35428568  0.28875661  0.47233143     0.91600
C363        C  0.32305233  0.32502491  0.37419170     0.83700
C364        C  0.25755249  0.24200782  0.47392304     0.90000
O365        O  0.25160769  0.41033454  0.40359419    -0.73800
O366        O  0.16298861  0.39872276  0.47484358    -0.74800
O367        O  0.18351880  0.37193088  0.40234172    -0.63400
O368        O  0.23538804  0.43409518  0.47607938    -0.71800
O369        O  0.21007548  0.98545934  0.45141331    -0.71300
O370        O  0.15946134  0.42150965  0.37321730    -0.62600
O371        O  0.13799202  0.44878599  0.44776874    -0.75100
O372        O  0.22582061  0.46142266  0.37886496    -0.73900
Cu373      Cu  0.20895765  0.40208077  0.44036108     1.04600
Cu374      Cu  0.18187211  0.45617937  0.41241214     1.04300
C375        C  0.25164367  0.43685763  0.37937116     0.92400
C376        C  0.13634980  0.42281896  0.47232233     0.91600
C377        C  0.16755867  0.38649566  0.37419007     0.83700
C378        C  0.23308281  0.46954560  0.47390815     0.90000
O379        O  0.33832502  0.46308751  0.27345988    -0.73800
O380        O  0.35097342  0.37525769  0.34236697    -0.74800
O381        O  0.37500684  0.39101617  0.26983246    -0.63400
O382        O  0.31105424  0.44160353  0.34800667    -0.71800
O383        O  0.26148073  0.41751803  0.31889938    -0.71300
O384        O  0.32365156  0.36569291  0.24515955    -0.62600
O385        O  0.29989860  0.34944480  0.31763452    -0.75100
O386        O  0.28826133  0.43808281  0.24639240    -0.73900
Cu387      Cu  0.34572363  0.41920714  0.30881923     1.04600
Cu388      Cu  0.29163190  0.39210261  0.28087389     1.04300
C389        C  0.31235408  0.46472927  0.24891258     0.92400
C390        C  0.32642011  0.34941925  0.34185700     0.91600
C391        C  0.35910037  0.36799995  0.24734675     0.83700
C392        C  0.27604376  0.43349171  0.34704174     0.90000
O393        O  0.03826866  0.43809293  0.22484939    -0.73800
O394        O  0.04992435  0.34949524  0.15358161    -0.74800
O395        O  0.07365011  0.36570455  0.22607656    -0.63400
O396        O  0.01150908  0.41757180  0.15232805    -0.71800
O397        O  0.06108181  0.44167379  0.12324602    -0.71300
O398        O  0.12501231  0.39104097  0.20144463    -0.62600
O399        O  0.10100033  0.37532199  0.12888442    -0.75100
O400        O  0.08833330  0.46311975  0.19782117    -0.73900
Cu401      Cu  0.04164777  0.39213400  0.19035380     1.04600
Cu402      Cu  0.09574226  0.41925662  0.16244745     1.04300
C403        C  0.06235829  0.46474515  0.22235371     0.92400
C404        C  0.07645104  0.34947786  0.12937653     0.91600
C405        C  0.10909781  0.36801176  0.22391170     0.83700
C406        C  0.02607320  0.43355556  0.12419564     0.90000
O407        O  0.38800280  0.44877294  0.02345911    -0.73800
O408        O  0.47584074  0.46146297  0.09235355    -0.74800
O409        O  0.46007614  0.98545404  0.01980478    -0.63400
O410        O  0.40949150  0.42154265  0.09802561    -0.71800
O411        O  0.43355978  0.37195689  0.06895081    -0.71300
O412        O  0.48538198  0.43408415  0.99517211    -0.62600
O413        O  0.50163653  0.41037549  0.06766171    -0.75100
O414        O  0.41299216  0.39869664  0.99643126    -0.73900
Cu415      Cu  0.43188672  0.45619277  0.05881200     1.04600
Cu416      Cu  0.45897405  0.40208639  0.03090830     1.04300
C417        C  0.38635181  0.42278992  0.99893330     0.92400
C418        C  0.50167446  0.43691080  0.09186024     0.91600
C419        C  0.48308731  0.46953510  0.99733790     0.83700
C420        C  0.41759617  0.38653122  0.09708161     0.90000
O421        O  0.00524943  0.27744677  0.99518177    -0.73800
O422        O  0.05713948  0.33963276  0.06889329    -0.74800
O423        O  0.07765272  0.31281967  0.99639435    -0.63400
O424        O  0.48904842  0.30122705  0.06766359    -0.71800
O425        O  0.01483919  0.25014174  0.09239510    -0.71300
O426        O  0.10265331  0.26276310  0.02347811    -0.62600
O427        O  0.08119699  0.29005838  0.09802472    -0.75100
O428        O  0.03056765  0.22608778  0.01985265    -0.73900
Cu429      Cu  0.03169066  0.30947169  0.03088601     1.04600
Cu430      Cu  0.05878000  0.25537832  0.05884126     1.04300
C431        C  0.00755149  0.24199641  0.99736249     0.92400
C432        C  0.07310112  0.32507266  0.09704692     0.91600
C433        C  0.10429230  0.28872471  0.99891927     0.83700
C434        C  0.48901588  0.27470592  0.09188891     0.90000
O435        O  0.45240711  0.27346070  0.22487086    -0.73800
O436        O  0.44076103  0.36210916  0.15363576    -0.74800
O437        O  0.41701591  0.34585099  0.22611295    -0.63400
O438        O  0.47918295  0.29403751  0.15236337    -0.71800
O439        O  0.42960741  0.26995809  0.12325437    -0.71300
O440        O  0.36566026  0.32052482  0.20144375    -0.62600
O441        O  0.38968212  0.33629821  0.12891019    -0.75100
O442        O  0.40234570  0.24845641  0.19779941    -0.73900
Cu443      Cu  0.44903347  0.31944659  0.19039333     1.04600
Cu444      Cu  0.39494079  0.29234337  0.16244917     1.04300
C445        C  0.42831502  0.24681316  0.22234803     0.92400
C446        C  0.41423461  0.36213718  0.12941802     0.91600
C447        C  0.38156712  0.34354117  0.22392903     0.83700
C448        C  0.46461769  0.27806990  0.12421884     0.90000
O449        O  0.48904714  0.91036417  0.56767467    -0.73800
O450        O  0.07764344  0.89873109  0.49641020    -0.74800
O451        O  0.05712608  0.87195776  0.56892746    -0.63400
O452        O  0.00525242  0.93410409  0.49518259    -0.71800
O453        O  0.03058151  0.48547138  0.51982103    -0.71300
O454        O  0.08121126  0.92153761  0.59801999    -0.62600
O455        O  0.10266086  0.94879942  0.52344921    -0.75100
O456        O  0.01486030  0.96144963  0.59237637    -0.73900
Cu457      Cu  0.03168563  0.90209875  0.53090322     1.04600
Cu458      Cu  0.05879578  0.95619981  0.55881844     1.04300
C459        C  0.48902337  0.93689268  0.59188164     0.92400
C460        C  0.10429076  0.92282559  0.49891214     0.91600
C461        C  0.07309928  0.88652542  0.59706617     0.83700
C462        C  0.00755521  0.96955456  0.49735114     0.90000
O463        O  0.40232159  0.96311546  0.69777567    -0.73800
O464        O  0.38968022  0.87528696  0.62887110    -0.74800
O465        O  0.36563673  0.89103207  0.70141236    -0.63400
O466        O  0.42960723  0.94164116  0.62323093    -0.71800
O467        O  0.47917515  0.91757717  0.65236391    -0.71300
O468        O  0.41698928  0.86570678  0.72608434    -0.62600
O469        O  0.44075925  0.84948920  0.65360400    -0.75100
O470        O  0.45237092  0.93810846  0.72486309    -0.73900
Cu471      Cu  0.39492756  0.91923490  0.66241852     1.04600
Cu472      Cu  0.44901377  0.89213840  0.69037589     1.04300
C473        C  0.42828099  0.96475270  0.72233619     0.92400
C474        C  0.41423860  0.84945832  0.62937912     0.91600
C475        C  0.38154104  0.86801603  0.72390513     0.83700
C476        C  0.46461799  0.93354000  0.62420930     0.90000
O477        O  0.08828741  0.74845800  0.69782090    -0.73800
O478        O  0.10099162  0.83628636  0.62891553    -0.74800
O479        O  0.12497498  0.82053208  0.70146994    -0.63400
O480        O  0.06106514  0.76993691  0.62325066    -0.71800
O481        O  0.01148626  0.79402151  0.65231763    -0.71300
O482        O  0.07361257  0.84585153  0.72609641    -0.62600
O483        O  0.04991259  0.86209804  0.65360057    -0.75100
O484        O  0.03821787  0.77346006  0.72484276    -0.73900
Cu485      Cu  0.09571399  0.79233693  0.66246351     1.04600
Cu486      Cu  0.04161544  0.81943983  0.69035973     1.04300
C487        C  0.06230596  0.74681386  0.72234490     0.92400
C488        C  0.07644652  0.86212665  0.62940361     0.91600
C489        C  0.10906113  0.84354997  0.72393374     0.83700
C490        C  0.02605778  0.77804857  0.62419060     0.90000
O491        O  0.50163682  0.80121636  0.56763846    -0.73800
O492        O  0.41299869  0.81285947  0.49639601    -0.74800
O493        O  0.43356590  0.83963131  0.56890621    -0.63400
O494        O  0.48538824  0.77747591  0.49515765    -0.71800
O495        O  0.46006976  0.72611077  0.51981760    -0.71300
O496        O  0.40949408  0.79004708  0.59800812    -0.62600
O497        O  0.38800169  0.76278858  0.52345821    -0.75100
O498        O  0.47583358  0.75012785  0.59235452    -0.73900
Cu499      Cu  0.45897931  0.80948777  0.53087714     1.04600
Cu500      Cu  0.43188392  0.75538485  0.55881168     1.04300
C501        C  0.50166720  0.77468590  0.59185243     0.92400
C502        C  0.38635544  0.78876315  0.49891461     0.91600
C503        C  0.41760127  0.82506082  0.59704763     0.83700
C504        C  0.48308476  0.74202453  0.49733860     0.90000
O505        O  0.37498273  0.82054159  0.76983104    -0.73800
O506        O  0.31103381  0.76991149  0.84801315    -0.74800
O507        O  0.33830877  0.74845444  0.77346550    -0.63400
O508        O  0.35094923  0.83627234  0.84237854    -0.71800
O509        O  0.29986612  0.86206997  0.81765351    -0.71300
O510        O  0.28825022  0.77345575  0.74638928    -0.62600
O511        O  0.26145919  0.79397767  0.81889277    -0.75100
O512        O  0.32362611  0.84586431  0.74516476    -0.73900
Cu513      Cu  0.34570297  0.79232986  0.80882503     1.04600
Cu514      Cu  0.29160999  0.81942439  0.78087787     1.04300
C515        C  0.35907488  0.84355772  0.74734097     0.92400
C516        C  0.27602226  0.77800903  0.84704131     0.91600
C517        C  0.31234243  0.74681318  0.74891308     0.83700
C518        C  0.32638811  0.86209826  0.84187712     0.90000
O519        O  0.18351825  0.83957780  0.90232268    -0.73800
O520        O  0.23538595  0.77743969  0.97607216    -0.74800
O521        O  0.25159772  0.80117512  0.90357975    -0.63400
O522        O  0.16299826  0.81280982  0.97483444    -0.71800
O523        O  0.13798305  0.76273877  0.94779765    -0.71300
O524        O  0.22578718  0.75008911  0.87887626    -0.62600
O525        O  0.21006112  0.72606954  0.95143457    -0.75100
O526        O  0.15943203  0.78999799  0.87323057    -0.73900
Cu527      Cu  0.20895734  0.80944059  0.94034719     1.04600
Cu528      Cu  0.18184950  0.75533768  0.91243233     1.04300
C529        C  0.16753870  0.82501145  0.87418755     0.92400
C530        C  0.23308081  0.74198908  0.97390913     0.91600
C531        C  0.25162216  0.77464811  0.87937147     0.83700
C532        C  0.13635138  0.78871532  0.97233148     0.90000
O533        O  0.20235090  0.93811658  0.74643934    -0.73800
O534        O  0.19069970  0.84945864  0.81765438    -0.74800
O535        O  0.16696542  0.86572536  0.74517914    -0.63400
O536        O  0.22911646  0.91754061  0.81894899    -0.71800
O537        O  0.17954397  0.94160653  0.84804124    -0.71300
O538        O  0.11560662  0.89103143  0.76982662    -0.62600
O539        O  0.13962371  0.87525264  0.84236428    -0.75100
O540        O  0.15228887  0.96310929  0.77348369    -0.73900
Cu541      Cu  0.19897414  0.89212947  0.78090948     1.04600
Cu542      Cu  0.14488129  0.91921644  0.80883159     1.04300
C543        C  0.17826104  0.96475920  0.74894970     0.92400
C544        C  0.16417350  0.84941662  0.84185857     0.91600
C545        C  0.13151716  0.86802103  0.74735299     0.83700
C546        C  0.21455279  0.93350151  0.84708707     0.90000
O547        O  0.26479068  0.96141585  0.87891329    -0.73800
O548        O  0.35263177  0.94875906  0.94780669    -0.74800
O549        O  0.33113463  0.92150384  0.87325601    -0.63400
O550        O  0.28056354  0.48543620  0.95145048    -0.71800
O551        O  0.25524902  0.93407141  0.97611477    -0.71300
O552        O  0.30706209  0.87191713  0.90235321    -0.62600
O553        O  0.32763901  0.89868476  0.97486585    -0.75100
O554        O  0.23898857  0.91032954  0.90363412    -0.73900
Cu555      Cu  0.30874558  0.95616205  0.91245439     1.04600
Cu556      Cu  0.28165304  0.90205836  0.94038938     1.04300
C557        C  0.23895500  0.93685950  0.87941950     0.92400
C558        C  0.35428101  0.92278295  0.97234876     0.91600
C559        C  0.32302623  0.88649062  0.87421261     0.83700
C560        C  0.25755264  0.96952339  0.97393366     0.90000
O561        O  0.33118140  0.67154887  0.09804105    -0.73800
O562        O  0.28056328  0.73546013  0.01982000    -0.74800
O563        O  0.26482557  0.71145165  0.09237707    -0.63400
O564        O  0.35264121  0.69879662  0.02347696    -0.71800
O565        O  0.32763412  0.64872077  0.99644114    -0.71300
O566        O  0.23902164  0.66036060  0.06767658    -0.62600
O567        O  0.25524323  0.68408708  0.99518326    -0.75100
O568        O  0.30710262  0.62196329  0.06895221    -0.73900
Cu569      Cu  0.30876870  0.70620041  0.05883094     1.04600
Cu570      Cu  0.28166825  0.65209236  0.03091816     1.04300
C571        C  0.32307770  0.63653497  0.09708732     0.92400
C572        C  0.25754700  0.71953805  0.99734390     0.91600
C573        C  0.23899284  0.68689048  0.09188160     0.83700
C574        C  0.35427931  0.67281657  0.99894744     0.90000
O575        O  0.22915772  0.66756241  0.15235957    -0.73800
O576        O  0.16699701  0.61568131  0.22609320    -0.74800
O577        O  0.19075574  0.59946839  0.15360527    -0.63400
O578        O  0.20237074  0.68808825  0.22486283    -0.71800
O579        O  0.15231015  0.71308719  0.19778835    -0.71300
O580        O  0.13967273  0.62526212  0.12887637    -0.62600
O581        O  0.11563900  0.64099970  0.20142501    -0.75100
O582        O  0.17958194  0.69162688  0.12323938    -0.73900
Cu583      Cu  0.19901060  0.64211771  0.19037706     1.04600
Cu584      Cu  0.14491633  0.66920880  0.16242901     1.04300
C585        C  0.21459343  0.68352971  0.12421106     0.92400
C586        C  0.13154858  0.61798814  0.22391879     0.91600
C587        C  0.16423506  0.59943674  0.12938039     0.83700
C588        C  0.17827756  0.71472980  0.22234027     0.90000
O589        O  0.33833152  0.99845133  0.19780014    -0.73800
O590        O  0.35099540  0.58630158  0.12891819    -0.74800
O591        O  0.37500737  0.57052993  0.20145890    -0.63400
O592        O  0.31108317  0.51994290  0.12324357    -0.71800
O593        O  0.26150528  0.54400680  0.15232872    -0.71300
O594        O  0.32364576  0.59583533  0.22610123    -0.62600
O595        O  0.29991472  0.61209331  0.15362127    -0.75100
O596        O  0.28826489  0.52344116  0.22483957    -0.73900
Cu597      Cu  0.34573897  0.54234081  0.16245301     1.04600
Cu598      Cu  0.29164128  0.56942547  0.19036866     1.04300
C599        C  0.31235626  0.99680008  0.22233028     0.92400
C600        C  0.32644276  0.61213470  0.12941910     0.91600
C601        C  0.35909392  0.59354005  0.22393162     0.83700
C602        C  0.27607290  0.52804153  0.12419511     0.90000
O603        O  0.25164477  0.55119730  0.06764062    -0.70600
O604        O  0.16300678  0.56282751  0.99639676    -0.74800
O605        O  0.18357097  0.58960838  0.06890780    -0.63400
O606        O  0.23539506  0.52744039  0.99516482    -0.71800
O607        O  0.21008152  0.97607793  0.01983468    -0.71300
O608        O  0.15949157  0.54002662  0.09800740    -0.62600
O609        O  0.13801062  0.01275497  0.02345621    -0.75100
O610        O  0.22583937  0.00011702  0.09237062    -0.73900
Cu611      Cu  0.20898611  0.55945997  0.03088001     1.04600
Cu612      Cu  0.18189028  0.00536037  0.05881975     1.04300
C613        C  0.25167470  0.52467390  0.09186164     0.92400
C614        C  0.13636494  0.53872930  0.99891152     0.91600
C615        C  0.16760045  0.57503993  0.09704747     0.83700
C616        C  0.23309332  0.99198863  0.99735083     0.90000
O617        O  0.44070893  0.59946581  0.31768116    -0.73800
O618        O  0.45239236  0.68809905  0.24643610    -0.74800
O619        O  0.47913220  0.66754526  0.31895610    -0.63400
O620        O  0.41699831  0.61570900  0.24518837    -0.71800
O621        O  0.36563684  0.64102661  0.26981848    -0.71300
O622        O  0.42955569  0.69163082  0.34802639    -0.62600
O623        O  0.40232394  0.71310176  0.27345994    -0.75100
O624        O  0.38963243  0.62527709  0.34237188    -0.73900
Cu625      Cu  0.44899953  0.64212255  0.28092019     1.04600
Cu626      Cu  0.39490277  0.66922509  0.30882037     1.04300
C627        C  0.41417825  0.59943700  0.34188113     0.92400
C628        C  0.42830460  0.71474481  0.24893485     0.91600
C629        C  0.46456369  0.68352275  0.34708208     0.83700
C630        C  0.38155033  0.61800972  0.24735252     0.90000
O631        O  0.05705897  0.62194793  0.40235939    -0.73800
O632        O  0.00524521  0.68410984  0.47610860    -0.74800
O633        O  0.48898949  0.66036435  0.40363377    -0.63400
O634        O  0.07763067  0.64872158  0.47486636    -0.71800
O635        O  0.10262808  0.69879271  0.44780490    -0.71300
O636        O  0.01479365  0.71144745  0.37890746    -0.62600
O637        O  0.03056011  0.73547351  0.45144206    -0.75100
O638        O  0.08113548  0.67152885  0.37325597    -0.73900
Cu639      Cu  0.03164949  0.65209458  0.44038937     1.04600
Cu640      Cu  0.05874529  0.70619481  0.41245010     1.04300
C641        C  0.07302672  0.63651539  0.37421813     0.92400
C642        C  0.00754723  0.71956108  0.47392413     0.91600
C643        C  0.48895839  0.68689098  0.37941618     0.83700
C644        C  0.10427416  0.67281710  0.47234776     0.90000
O645        O  0.06102643  0.51993059  0.34805195    -0.73800
O646        O  0.12498989  0.57052677  0.26985884    -0.74800
O647        O  0.10095010  0.58628592  0.34239965    -0.63400
O648        O  0.08830704  0.99844492  0.27350585    -0.71800
O649        O  0.03825448  0.52344738  0.24642042    -0.71300
O650        O  0.04987062  0.61207991  0.31766390    -0.62600
O651        O  0.07363571  0.59584702  0.24518473    -0.75100
O652        O  0.01145661  0.54399248  0.31892034    -0.73900
Cu653      Cu  0.09570233  0.54233133  0.30885845     1.04600
Cu654      Cu  0.04161422  0.56942343  0.28090052     1.04300
C655        C  0.02601584  0.52803281  0.34707571     0.92400
C656        C  0.10908364  0.59353718  0.24736145     0.91600
C657        C  0.07639127  0.61211449  0.34188870     0.83700
C658        C  0.06234621  0.99680465  0.24894646     0.90000
O659        O  0.48537685  0.52746094  0.47610171    -0.73800
O660        O  0.43349851  0.58960553  0.40235745    -0.74800
O661        O  0.41297948  0.56282420  0.47487042    -0.63400
O662        O  0.50158306  0.55120734  0.40361064    -0.71800
O663        O  0.47577789  0.00011817  0.37890826    -0.71300
O664        O  0.38797012  0.01275522  0.44782529    -0.62600
O665        O  0.40942356  0.54002350  0.37326018    -0.75100
O666        O  0.46005277  0.97609247  0.45146021    -0.73900
Cu667      Cu  0.45894116  0.55946527  0.44038105     1.04600
Cu668      Cu  0.43183940  0.00536218  0.41246159     1.04300
C669        C  0.48307694  0.99201034  0.47393164     0.92400
C670        C  0.41752884  0.57503731  0.37421728     0.91600
C671        C  0.38633469  0.53872729  0.47236346     0.83700
C672        C  0.50161124  0.52467857  0.37940371     0.90000
O673        O  0.28825354  0.68809929  0.72483959    -0.73800
O674        O  0.29989580  0.59947144  0.65361177    -0.74800
O675        O  0.32362129  0.61570379  0.72610272    -0.63400
O676        O  0.26149555  0.66755507  0.65232723    -0.71800
O677        O  0.31107588  0.69163394  0.62323876    -0.71300
O678        O  0.37498706  0.64102835  0.70146567    -0.62600
O679        O  0.35098170  0.62527824  0.62891349    -0.75100
O680        O  0.33832191  0.71310809  0.69780090    -0.73900
Cu681      Cu  0.29162560  0.64212545  0.69036575     1.04600
Cu682      Cu  0.34572695  0.66922830  0.66245264     1.04300
C683        C  0.31234608  0.71474731  0.72233102     0.92400
C684        C  0.32642517  0.59944157  0.62940980     0.91600
C685        C  0.35906943  0.61800853  0.72393986     0.83700
C686        C  0.27606498  0.68352795  0.62419111     0.90000
O687        O  0.13799873  0.69879566  0.52346026    -0.73800
O688        O  0.22583745  0.71144914  0.59235573    -0.74800
O689        O  0.21007580  0.73546655  0.51981371    -0.63400
O690        O  0.15947881  0.67154279  0.59801745    -0.71800
O691        O  0.18353779  0.62195742  0.56893449    -0.71300
O692        O  0.23537578  0.68409906  0.49517075    -0.62600
O693        O  0.25162418  0.66036203  0.56765352    -0.75100
O694        O  0.16298134  0.64872144  0.49642167    -0.73900
Cu695      Cu  0.18188261  0.70619808  0.55881362     1.04600
Cu696      Cu  0.20896120  0.65209316  0.53089883     1.04300
C697        C  0.13634479  0.67281792  0.49892949     0.92400
C698        C  0.25166617  0.68689189  0.59185751     0.91600
C699        C  0.23308384  0.71954995  0.49734184     0.83700
C700        C  0.16757388  0.63652949  0.59706683     0.90000
O701        O  0.17956573  0.51994449  0.62326412    -0.73800
O702        O  0.11561272  0.57054548  0.70143049    -0.74800
O703        O  0.13965180  0.58629502  0.62889277    -0.63400
O704        O  0.15229151  0.99846985  0.69781543    -0.71800
O705        O  0.20235622  0.52347532  0.72487950    -0.71300
O706        O  0.19072555  0.61210866  0.65362605    -0.62600
O707        O  0.16696841  0.59586804  0.72610285    -0.75100
O708        O  0.22913976  0.54403230  0.65236846    -0.73900
Cu709      Cu  0.14489662  0.54234798  0.66244800     1.04600
Cu710      Cu  0.19898848  0.56945308  0.69039158     1.04300
C711        C  0.21457638  0.52805603  0.62422757     0.92400
C712        C  0.13151886  0.59356159  0.72391571     0.91600
C713        C  0.16420571  0.61213321  0.62940170     0.83700
C714        C  0.17826207  0.99682935  0.72236360     0.90000
O715        O  0.35262598  0.01275804  0.52349759    -0.73800
O716        O  0.26479629  0.00012121  0.59240074    -0.74800
O717        O  0.28053975  0.97609082  0.51984941    -0.63400
O718        O  0.33116036  0.54002622  0.59805012    -0.71800
O719        O  0.30710532  0.58960928  0.56893072    -0.71300
O720        O  0.25522955  0.52745740  0.49518610    -0.62600
O721        O  0.23901277  0.55121276  0.56767501    -0.75100
O722        O  0.32763317  0.56282576  0.49642764    -0.73900
Cu723      Cu  0.30874530  0.00536375  0.55885290     1.04600
Cu724      Cu  0.28166327  0.55946647  0.53090844     1.04300
C725        C  0.35427156  0.53872904  0.49894841     0.92400
C726        C  0.23897533  0.52468866  0.59189694     0.91600
C727        C  0.25753358  0.99200593  0.49735575     0.83700
C728        C  0.32306640  0.57504071  0.59708005     0.90000
O729        O  0.10094802  0.62525136  0.84235878    -0.73800
O730        O  0.08826989  0.71309992  0.77347744    -0.74800
O731        O  0.06102016  0.69158891  0.84802490    -0.63400
O732        O  0.12496028  0.64103367  0.76982251    -0.71800
O733        O  0.07360357  0.61570755  0.74515558    -0.71300
O734        O  0.01144284  0.66750571  0.81892194    -0.62600
O735        O  0.03820571  0.68809595  0.74641114    -0.75100
O736        O  0.04986994  0.59943732  0.81763517    -0.73900
Cu737      Cu  0.09568238  0.66920953  0.80882355     1.04600
Cu738      Cu  0.04158847  0.64210471  0.78088356     1.04300
C739        C  0.07639859  0.59940935  0.84185077     0.92400
C740        C  0.06229709  0.71474440  0.74893218     0.91600
C741        C  0.02601087  0.68347244  0.84706555     0.83700
C742        C  0.10905313  0.61801916  0.74733641     0.90000
O743        O  0.41298030  0.64871231  0.97488981    -0.73800
O744        O  0.50158363  0.66030834  0.90362001    -0.74800
O745        O  0.48538912  0.68407894  0.97610852    -0.63400
O746        O  0.43348888  0.62190990  0.90238781    -0.71800
O747        O  0.40943647  0.67149104  0.87326334    -0.71300
O748        O  0.46007107  0.73544147  0.95144466    -0.62600
O749        O  0.47579686  0.71140087  0.87889892    -0.75100
O750        O  0.38798421  0.69877403  0.94781106    -0.73900
Cu751      Cu  0.45894265  0.65206172  0.94039888     1.04600
Cu752      Cu  0.43185700  0.70616127  0.91245158     1.04300
C753        C  0.38634191  0.67280868  0.97236522     0.92400
C754        C  0.50161703  0.68683348  0.87939890     0.91600
C755        C  0.48308736  0.71952998  0.97393212     0.83700
C756        C  0.41752780  0.63647580  0.87423679     0.90000
O757        O  0.38962622  0.58623021  0.84239745    -0.73800
O758        O  0.40229433  0.99843537  0.77346128    -0.74800
O759        O  0.42954978  0.51988054  0.84803193    -0.63400
O760        O  0.36561026  0.57051086  0.76983769    -0.71800
O761        O  0.41697053  0.59584879  0.74520332    -0.71300
O762        O  0.47911853  0.54398856  0.81894798    -0.62600
O763        O  0.45235666  0.52346483  0.74643098    -0.75100
O764        O  0.44069825  0.61206161  0.81769681    -0.73900
Cu765      Cu  0.39488468  0.54229697  0.80883405     1.04600
Cu766      Cu  0.44897597  0.56942360  0.78092491     1.04300
C767        C  0.41417411  0.61207560  0.84190444     0.92400
C768        C  0.42826901  0.99681127  0.74892858     0.91600
C769        C  0.46455819  0.52799943  0.84707908     0.83700
C770        C  0.38152318  0.59353861  0.74736795     0.90000
O771        O  0.07765647  0.56282126  0.97483450    -0.73800
O772        O  0.98900664  0.55116815  0.90361135    -0.74800
O773        O  0.00526598  0.52744043  0.97609138    -0.63400
O774        O  0.05708715  0.58958010  0.90232207    -0.71800
O775        O  0.08114438  0.53999758  0.87323322    -0.71300
O776        O  0.03056623  0.97607251  0.95144932    -0.62600
O777        O  0.01479285  0.00008117  0.87890825    -0.75100
O778        O  0.10264226  0.01274973  0.94779444    -0.73900
Cu779      Cu  0.03167323  0.55944395  0.94036075     1.04600
Cu780      Cu  0.05875272  0.00534047  0.91244424     1.04300
C781        C  0.10429497  0.53872695  0.97232654     0.92400
C782        C  0.48896189  0.52463651  0.87940935     0.91600
C783        C  0.00755805  0.99198959  0.97392011     0.83700
C784        C  0.07304342  0.57500975  0.87418493     0.90000
O785        O  0.15230161  0.74843127  0.27345807    -0.73800
O786        O  0.13964750  0.83625455  0.34235727    -0.74800
O787        O  0.11563510  0.82051276  0.26980602    -0.63400
O788        O  0.17955647  0.76989970  0.34802205    -0.71800
O789        O  0.22913426  0.79397899  0.31892998    -0.71300
O790        O  0.16699951  0.84583967  0.24516879    -0.62600
O791        O  0.19073216  0.86206324  0.31765873    -0.75100
O792        O  0.20236691  0.77344334  0.24641716    -0.73900
Cu793      Cu  0.14490007  0.79230790  0.30881284     1.04600
Cu794      Cu  0.19899903  0.81941309  0.28089809     1.04300
C795        C  0.17827434  0.74679488  0.24892450     0.92400
C796        C  0.16420323  0.86209209  0.34186134     0.91600
C797        C  0.13155177  0.84353640  0.24733448     0.83700
C798        C  0.21456738  0.77800677  0.34706761     0.90000
O799        O  0.23900356  0.80118121  0.40360435    -0.73800
O800        O  0.32764530  0.81284926  0.47483582    -0.74800
O801        O  0.30708296  0.83959723  0.40232051    -0.63400
O802        O  0.25525663  0.77745878  0.47609126    -0.71800
O803        O  0.28056240  0.72609187  0.45145296    -0.71300
O804        O  0.33115425  0.79001318  0.37324493    -0.62600
O805        O  0.35263496  0.76277441  0.44780503    -0.75100
O806        O  0.26480107  0.75009766  0.37890621    -0.73900
Cu807      Cu  0.28166532  0.80946351  0.44035887     1.04600
Cu808      Cu  0.30875356  0.75535982  0.41245076     1.04300
C809        C  0.23896708  0.77464971  0.37940211     0.92400
C810        C  0.35428567  0.78875658  0.47233139     0.91600
C811        C  0.32305236  0.82502488  0.37419167     0.83700
C812        C  0.25755229  0.74200806  0.47392313     0.90000
O813        O  0.25160780  0.91033456  0.40359410    -0.73800
O814        O  0.16298878  0.89872284  0.47484356    -0.74800
O815        O  0.18351892  0.87193094  0.40234175    -0.63400
O816        O  0.23538817  0.93409503  0.47607934    -0.71800
O817        O  0.21007525  0.48545937  0.45141321    -0.71300
O818        O  0.15946152  0.92150968  0.37321730    -0.62600
O819        O  0.13799209  0.94878603  0.44776872    -0.75100
O820        O  0.22582067  0.96142272  0.37886501    -0.73900
Cu821      Cu  0.20895775  0.90208083  0.44036103     1.04600
Cu822      Cu  0.18187218  0.95617942  0.41241216     1.04300
C823        C  0.25164378  0.93685764  0.37937111     0.92400
C824        C  0.13634995  0.92281901  0.47232233     0.91600
C825        C  0.16755868  0.88649570  0.37419010     0.83700
C826        C  0.23308251  0.96954646  0.47390779     0.90000
O827        O  0.33832504  0.96308765  0.27345992    -0.73800
O828        O  0.35097338  0.87525772  0.34236700    -0.74800
O829        O  0.37500681  0.89101628  0.26983252    -0.63400
O830        O  0.31105432  0.94160360  0.34800664    -0.71800
O831        O  0.26148082  0.91751810  0.31889930    -0.71300
O832        O  0.32365163  0.86569294  0.24515961    -0.62600
O833        O  0.29989860  0.84944481  0.31763454    -0.75100
O834        O  0.28826145  0.93808279  0.24639235    -0.73900
Cu835      Cu  0.34572363  0.91920720  0.30881924     1.04600
Cu836      Cu  0.29163192  0.89210265  0.28087387     1.04300
C837        C  0.31235431  0.96472939  0.24891266     0.92400
C838        C  0.32642016  0.84941929  0.34185701     0.91600
C839        C  0.35910014  0.86799994  0.24734676     0.83700
C840        C  0.27604380  0.93349178  0.34704166     0.90000
O841        O  0.03826857  0.93809298  0.22484941    -0.73800
O842        O  0.04992425  0.84949528  0.15358155    -0.74800
O843        O  0.07365020  0.86570457  0.22607657    -0.63400
O844        O  0.01150905  0.91757192  0.15232806    -0.71800
O845        O  0.06108181  0.94167370  0.12324591    -0.71300
O846        O  0.12501234  0.89104100  0.20144455    -0.62600
O847        O  0.10100036  0.87532195  0.12888445    -0.75100
O848        O  0.08833326  0.96311965  0.19782114    -0.73900
Cu849      Cu  0.04164775  0.89213405  0.19035380     1.04600
Cu850      Cu  0.09574233  0.91925663  0.16244740     1.04300
C851        C  0.06235829  0.96474511  0.22235369     0.92400
C852        C  0.07645100  0.84947783  0.12937650     0.91600
C853        C  0.10909758  0.86801165  0.22391182     0.83700
C854        C  0.02607337  0.93355564  0.12419557     0.90000
O855        O  0.38800279  0.94877283  0.02345915    -0.73800
O856        O  0.47584067  0.96146291  0.09235355    -0.74800
O857        O  0.46007622  0.48545403  0.01980476    -0.63400
O858        O  0.40949151  0.92154256  0.09802564    -0.71800
O859        O  0.43355986  0.87195689  0.06895079    -0.71300
O860        O  0.48538193  0.93408417  0.99517214    -0.62600
O861        O  0.50163653  0.91037552  0.06766167    -0.75100
O862        O  0.41299218  0.89869663  0.99643120    -0.73900
Cu863      Cu  0.43188670  0.95619271  0.05881200     1.04600
Cu864      Cu  0.45897407  0.90208644  0.03090831     1.04300
C865        C  0.38635186  0.92278978  0.99893328     0.92400
C866        C  0.50167433  0.93691081  0.09186022     0.91600
C867        C  0.48308710  0.96953526  0.99733800     0.83700
C868        C  0.41759607  0.88653117  0.09708160     0.90000
O869        O  0.00524938  0.77744677  0.99518180    -0.73800
O870        O  0.05713938  0.83963272  0.06889328    -0.74800
O871        O  0.07765267  0.81281955  0.99639425    -0.63400
O872        O  0.48904843  0.80122704  0.06766360    -0.71800
O873        O  0.01483914  0.75014174  0.09239511    -0.71300
O874        O  0.10265329  0.76276308  0.02347818    -0.62600
O875        O  0.08119687  0.79005834  0.09802471    -0.75100
O876        O  0.03056761  0.72608782  0.01985264    -0.73900
Cu877      Cu  0.03169061  0.80947166  0.03088601     1.04600
Cu878      Cu  0.05877993  0.75537836  0.05884125     1.04300
C879        C  0.00755162  0.74199619  0.99736256     0.92400
C880        C  0.07310105  0.82507263  0.09704691     0.91600
C881        C  0.10429224  0.78872473  0.99891925     0.83700
C882        C  0.48901590  0.77470578  0.09188894     0.90000
O883        O  0.45240705  0.77346068  0.22487092    -0.73800
O884        O  0.44076104  0.86210926  0.15363572    -0.74800
O885        O  0.41701592  0.84585101  0.22611286    -0.63400
O886        O  0.47918291  0.79403747  0.15236338    -0.71800
O887        O  0.42960734  0.76995817  0.12325437    -0.71300
O888        O  0.36566018  0.82052485  0.20144381    -0.62600
O889        O  0.38968209  0.83629822  0.12891032    -0.75100
O890        O  0.40234568  0.74845639  0.19779933    -0.73900
Cu891      Cu  0.44903354  0.81944661  0.19039331     1.04600
Cu892      Cu  0.39494077  0.79234341  0.16244922     1.04300
C893        C  0.42831489  0.74681315  0.22234799     0.92400
C894        C  0.41423454  0.86213712  0.12941801     0.91600
C895        C  0.38156739  0.84354124  0.22392915     0.83700
C896        C  0.46461745  0.77806986  0.12421881     0.90000
O897        O  0.98904721  0.41036408  0.56767465    -0.73800
O898        O  0.57764341  0.39873094  0.49641031    -0.74800
O899        O  0.55712605  0.37195771  0.56892751    -0.63400
O900        O  0.50525245  0.43410390  0.49518251    -0.71800
O901        O  0.53058171  0.98547147  0.51982102    -0.71300
O902        O  0.58121111  0.42153763  0.59802000    -0.62600
O903        O  0.60266079  0.44879936  0.52344921    -0.75100
O904        O  0.51486026  0.46144960  0.59237636    -0.73900
Cu905      Cu  0.53168561  0.40209866  0.53090322     1.04600
Cu906      Cu  0.55879573  0.45619980  0.55881844     1.04300
C907        C  0.98902338  0.43689271  0.59188160     0.92400
C908        C  0.60429064  0.42282551  0.49891217     0.91600
C909        C  0.57309922  0.38652538  0.59706620     0.83700
C910        C  0.50755536  0.46955490  0.49735129     0.90000
O911        O  0.90232162  0.46311537  0.69777567    -0.73800
O912        O  0.88968025  0.37528697  0.62887115    -0.74800
O913        O  0.86563674  0.39103208  0.70141234    -0.63400
O914        O  0.92960715  0.44164111  0.62323097    -0.71800
O915        O  0.97917517  0.41757714  0.65236383    -0.71300
O916        O  0.91698925  0.36570675  0.72608435    -0.62600
O917        O  0.94075928  0.34948916  0.65360402    -0.75100
O918        O  0.95237096  0.43810838  0.72486309    -0.73900
Cu919      Cu  0.89492756  0.41923485  0.66241856     1.04600
Cu920      Cu  0.94901383  0.39213835  0.69037590     1.04300
C921        C  0.92828103  0.46475258  0.72233624     0.92400
C922        C  0.91423871  0.34945829  0.62937914     0.91600
C923        C  0.88154141  0.36801576  0.72390531     0.83700
C924        C  0.96461784  0.43353997  0.62420923     0.90000
O925        O  0.58828742  0.24845795  0.69782097    -0.73800
O926        O  0.60099163  0.33628623  0.62891554    -0.74800
O927        O  0.62497507  0.32053209  0.70146991    -0.63400
O928        O  0.56106523  0.26993686  0.62325069    -0.71800
O929        O  0.51148636  0.29402141  0.65231769    -0.71300
O930        O  0.57361266  0.34585145  0.72609660    -0.62600
O931        O  0.54991270  0.36209801  0.65360070    -0.75100
O932        O  0.53821793  0.27346005  0.72484287    -0.73900
Cu933      Cu  0.59571406  0.29233690  0.66246356     1.04600
Cu934      Cu  0.54161547  0.31943979  0.69035981     1.04300
C935        C  0.56230593  0.24681389  0.72234499     0.92400
C936        C  0.57644654  0.36212664  0.62940368     0.91600
C937        C  0.60906079  0.34355019  0.72393396     0.83700
C938        C  0.52605785  0.27804851  0.62419064     0.90000
O939        O  0.00163685  0.30121639  0.56763849    -0.73800
O940        O  0.91299868  0.31285956  0.49639607    -0.74800
O941        O  0.93356600  0.33963137  0.56890620    -0.63400
O942        O  0.98538829  0.27747590  0.49515763    -0.71800
O943        O  0.96006979  0.22611077  0.51981754    -0.71300
O944        O  0.90949424  0.29004709  0.59800806    -0.62600
O945        O  0.88800180  0.26278861  0.52345823    -0.75100
O946        O  0.97583367  0.25012782  0.59235443    -0.73900
Cu947      Cu  0.95897934  0.30948774  0.53087716     1.04600
Cu948      Cu  0.93188398  0.25538485  0.55881166     1.04300
C949        C  0.00166728  0.27468587  0.59185239     0.92400
C950        C  0.88635543  0.28876314  0.49891467     0.91600
C951        C  0.91760139  0.32506096  0.59704759     0.83700
C952        C  0.98308459  0.24202435  0.49733867     0.90000
O953        O  0.87498282  0.32054147  0.76983114    -0.73800
O954        O  0.81103390  0.26991143  0.84801319    -0.74800
O955        O  0.83830890  0.24845444  0.77346549    -0.63400
O956        O  0.85094921  0.33627229  0.84237852    -0.71800
O957        O  0.79986610  0.36206999  0.81765349    -0.71300
O958        O  0.78825032  0.27345570  0.74638930    -0.62600
O959        O  0.76145929  0.29397760  0.81889278    -0.75100
O960        O  0.82362625  0.34586426  0.74516477    -0.73900
Cu961      Cu  0.84570305  0.29232986  0.80882507     1.04600
Cu962      Cu  0.79161004  0.31942435  0.78087788     1.04300
C963        C  0.85907461  0.34355786  0.74734083     0.92400
C964        C  0.77602237  0.27800893  0.84704133     0.91600
C965        C  0.81234250  0.24681315  0.74891307     0.83700
C966        C  0.82638804  0.36209830  0.84187711     0.90000
O967        O  0.68351832  0.33957775  0.90232263    -0.73800
O968        O  0.73538597  0.27743958  0.97607218    -0.74800
O969        O  0.75159782  0.30117499  0.90357978    -0.63400
O970        O  0.66299832  0.31280981  0.97483448    -0.71800
O971        O  0.63798320  0.26273874  0.94779764    -0.71300
O972        O  0.72578726  0.25008899  0.87887624    -0.62600
O973        O  0.71006109  0.22606943  0.95143456    -0.75100
O974        O  0.65943208  0.28999794  0.87323055    -0.73900
Cu975      Cu  0.70895741  0.30944054  0.94034722     1.04600
Cu976      Cu  0.68184958  0.25533763  0.91243231     1.04300
C977        C  0.66753867  0.32501135  0.87418751     0.92400
C978        C  0.73308086  0.24198927  0.97390929     0.91600
C979        C  0.75162224  0.27464798  0.87937141     0.83700
C980        C  0.63635144  0.28871545  0.97233149     0.90000
O981        O  0.70235092  0.43811659  0.74643943    -0.73800
O982        O  0.69069971  0.34945859  0.81765439    -0.74800
O983        O  0.66696532  0.36572539  0.74517912    -0.63400
O984        O  0.72911650  0.41754051  0.81894900    -0.71800
O985        O  0.67954399  0.44160643  0.84804121    -0.71300
O986        O  0.61560655  0.39103143  0.76982668    -0.62600
O987        O  0.63962378  0.37525264  0.84236430    -0.75100
O988        O  0.65228887  0.46310935  0.77348374    -0.73900
Cu989      Cu  0.69897414  0.39212945  0.78090951     1.04600
Cu990      Cu  0.64488131  0.41921644  0.80883157     1.04300
C991        C  0.67826089  0.46475928  0.74894972     0.92400
C992        C  0.66417341  0.34941661  0.84185858     0.91600
C993        C  0.63151752  0.36802083  0.74735280     0.83700
C994        C  0.71455281  0.43350149  0.84708703     0.90000
O995        O  0.76479067  0.46141579  0.87891332    -0.73800
O996        O  0.85263180  0.44875902  0.94780667    -0.74800
O997        O  0.83113472  0.42150377  0.87325597    -0.63400
O998        O  0.78056351  0.98543634  0.95145045    -0.71800
O999        O  0.75524881  0.43407147  0.97611474    -0.71300
O1000       O  0.80706201  0.37191715  0.90235317    -0.62600
O1001       O  0.82763897  0.39868476  0.97486591    -0.75100
O1002       O  0.73898847  0.41032950  0.90363410    -0.73900
Cu1003     Cu  0.80874559  0.45616200  0.91245437     1.04600
Cu1004     Cu  0.78165295  0.40205837  0.94038941     1.04300
C1005       C  0.73895498  0.43685948  0.87941948     0.92400
C1006       C  0.85428109  0.42278284  0.97234879     0.91600
C1007       C  0.82302626  0.38649049  0.87421261     0.83700
C1008       C  0.75755263  0.46952334  0.97393364     0.90000
O1009       O  0.83118153  0.17154891  0.09804106    -0.73800
O1010       O  0.78056335  0.23546014  0.01982005    -0.74800
O1011       O  0.76482570  0.21145165  0.09237718    -0.63400
O1012       O  0.85264129  0.19879663  0.02347693    -0.71800
O1013       O  0.82763416  0.14872079  0.99644109    -0.71300
O1014       O  0.73902166  0.16036069  0.06767654    -0.62600
O1015       O  0.75524326  0.18408717  0.99518317    -0.75100
O1016       O  0.80710264  0.12196332  0.06895224    -0.73900
Cu1017     Cu  0.80876879  0.20620042  0.05883097     1.04600
Cu1018     Cu  0.78166828  0.15209237  0.03091810     1.04300
C1019       C  0.82307769  0.13653487  0.09708732     0.92400
C1020       C  0.75754687  0.21953785  0.99734382     0.91600
C1021       C  0.73899293  0.18689057  0.09188165     0.83700
C1022       C  0.85427948  0.17281657  0.99894743     0.90000
O1023       O  0.72915781  0.16756236  0.15235956    -0.73800
O1024       O  0.66699699  0.11568128  0.22609317    -0.74800
O1025       O  0.69075573  0.09946837  0.15360529    -0.63400
O1026       O  0.70237072  0.18808833  0.22486285    -0.71800
O1027       O  0.65231017  0.21308732  0.19778837    -0.71300
O1028       O  0.63967282  0.12526226  0.12887634    -0.62600
O1029       O  0.61563907  0.14099980  0.20142497    -0.75100
O1030       O  0.67958206  0.19162700  0.12323946    -0.73900
Cu1031     Cu  0.69901059  0.14211772  0.19037706     1.04600
Cu1032     Cu  0.64491637  0.16920887  0.16242902     1.04300
C1033       C  0.71459350  0.18352975  0.12421109     0.92400
C1034       C  0.63154850  0.11798826  0.22391875     0.91600
C1035       C  0.66423509  0.09943688  0.12938036     0.83700
C1036       C  0.67827755  0.21472989  0.22234029     0.90000
O1037       O  0.83833152  0.49845136  0.19780019    -0.73800
O1038       O  0.85099544  0.08630160  0.12891819    -0.74800
O1039       O  0.87500741  0.07052990  0.20145897    -0.63400
O1040       O  0.81108316  0.01994288  0.12324358    -0.71800
O1041       O  0.76150527  0.04400672  0.15232880    -0.71300
O1042       O  0.82364571  0.09583528  0.22610116    -0.62600
O1043       O  0.79991475  0.11209325  0.15362126    -0.75100
O1044       O  0.78826495  0.02344115  0.22483963    -0.73900
Cu1045     Cu  0.84573895  0.04234082  0.16245301     1.04600
Cu1046     Cu  0.79164128  0.06942546  0.19036867     1.04300
C1047       C  0.81235639  0.49680000  0.22233021     0.92400
C1048       C  0.82644269  0.11213480  0.12941915     0.91600
C1049       C  0.85909392  0.09354003  0.22393161     0.83700
C1050       C  0.77607304  0.02804162  0.12419510     0.90000
O1051       O  0.75164480  0.05119730  0.06764055    -0.70600
O1052       O  0.66300682  0.06282753  0.99639676    -0.74800
O1053       O  0.68357104  0.08960844  0.06890777    -0.63400
O1054       O  0.73539519  0.02744036  0.99516476    -0.71800
O1055       O  0.71008163  0.47607781  0.01983462    -0.71300
O1056       O  0.65949154  0.04002669  0.09800734    -0.62600
O1057       O  0.63801070  0.51275493  0.02345618    -0.75100
O1058       O  0.72583945  0.50011683  0.09237043    -0.73900
Cu1059     Cu  0.70898612  0.05945998  0.03087998     1.04600
Cu1060     Cu  0.68189037  0.50536030  0.05881971     1.04300
C1061       C  0.75167474  0.02467391  0.09186167     0.92400
C1062       C  0.63636509  0.03872930  0.99891151     0.91600
C1063       C  0.66760054  0.07503994  0.09704744     0.83700
C1064       C  0.73309332  0.49198872  0.99735078     0.90000
O1065       O  0.94070892  0.09946583  0.31768124    -0.73800
O1066       O  0.95239233  0.18809892  0.24643611    -0.74800
O1067       O  0.97913220  0.16754525  0.31895606    -0.63400
O1068       O  0.91699830  0.11570898  0.24518844    -0.71800
O1069       O  0.86563677  0.14102659  0.26981848    -0.71300
O1070       O  0.92955568  0.19163074  0.34802639    -0.62600
O1071       O  0.90232389  0.21310164  0.27345987    -0.75100
O1072       O  0.88963228  0.12527705  0.34237183    -0.73900
Cu1073     Cu  0.94899955  0.14212251  0.28092020     1.04600
Cu1074     Cu  0.89490269  0.16922507  0.30882035     1.04300
C1075       C  0.91417812  0.09943714  0.34188121     0.92400
C1076       C  0.92830463  0.21474482  0.24893490     0.91600
C1077       C  0.96456367  0.18352273  0.34708206     0.83700
C1078       C  0.88155029  0.11800969  0.24735252     0.90000
O1079       O  0.55705904  0.12194797  0.40235942    -0.73800
O1080       O  0.50524520  0.18410985  0.47610861    -0.74800
O1081       O  0.98898957  0.16036439  0.40363370    -0.63400
O1082       O  0.57763072  0.14872152  0.47486635    -0.71800
O1083       O  0.60262818  0.19879277  0.44780506    -0.71300
O1084       O  0.51479366  0.21144756  0.37890742    -0.62600
O1085       O  0.53056002  0.23547359  0.45144209    -0.75100
O1086       O  0.58113554  0.17152890  0.37325601    -0.73900
Cu1087     Cu  0.53164949  0.15209456  0.44038937     1.04600
Cu1088     Cu  0.55874533  0.20619488  0.41245014     1.04300
C1089       C  0.57302680  0.13651548  0.37421812     0.92400
C1090       C  0.50754733  0.21956128  0.47392402     0.91600
C1091       C  0.98895844  0.18689109  0.37941611     0.83700
C1092       C  0.60427436  0.17281733  0.47234771     0.90000
O1093       O  0.56102648  0.01993050  0.34805192    -0.73800
O1094       O  0.62498989  0.07052677  0.26985881    -0.74800
O1095       O  0.60095016  0.08628585  0.34239972    -0.63400
O1096       O  0.58830700  0.49844495  0.27350591    -0.71800
O1097       O  0.53825448  0.02344733  0.24642042    -0.71300
O1098       O  0.54987075  0.11207979  0.31766385    -0.62600
O1099       O  0.57363568  0.09584693  0.24518466    -0.75100
O1100       O  0.51145667  0.04399248  0.31892040    -0.73900
Cu1101     Cu  0.59570235  0.04233129  0.30885844     1.04600
Cu1102     Cu  0.54161424  0.06942339  0.28090049     1.04300
C1103       C  0.52601596  0.02803272  0.34707571     0.92400
C1104       C  0.60908374  0.09353717  0.24736148     0.91600
C1105       C  0.57639141  0.11211437  0.34188870     0.83700
C1106       C  0.56234620  0.49680468  0.24894651     0.90000
O1107       O  0.98537691  0.02746093  0.47610161    -0.73800
O1108       O  0.93349857  0.08960543  0.40235749    -0.74800
O1109       O  0.91297947  0.06282417  0.47487055    -0.63400
O1110       O  0.00158308  0.05120737  0.40361060    -0.71800
O1111       O  0.97577799  0.50011807  0.37890831    -0.71300
O1112       O  0.88797020  0.51275508  0.44782540    -0.62600
O1113       O  0.90942340  0.04002359  0.37326015    -0.75100
O1114       O  0.96005295  0.47609238  0.45146019    -0.73900
Cu1115     Cu  0.95894116  0.05946526  0.44038103     1.04600
Cu1116     Cu  0.93183949  0.50536209  0.41246162     1.04300
C1117       C  0.98307689  0.49200980  0.47393148     0.92400
C1118       C  0.91752879  0.07503721  0.37421730     0.91600
C1119       C  0.88633464  0.03872735  0.47236351     0.83700
C1120       C  0.00161129  0.02467852  0.37940370     0.90000
O1121       O  0.78825365  0.18809919  0.72483953    -0.73800
O1122       O  0.79989581  0.09947138  0.65361182    -0.74800
O1123       O  0.82362139  0.11570379  0.72610272    -0.63400
O1124       O  0.76149560  0.16755495  0.65232722    -0.71800
O1125       O  0.81107589  0.19163390  0.62323874    -0.71300
O1126       O  0.87498714  0.14102831  0.70146558    -0.62600
O1127       O  0.85098172  0.12527826  0.62891355    -0.75100
O1128       O  0.83832204  0.21310804  0.69780091    -0.73900
Cu1129     Cu  0.79162564  0.14212538  0.69036576     1.04600
Cu1130     Cu  0.84572701  0.16922827  0.66245262     1.04300
C1131       C  0.81234621  0.21474729  0.72233100     0.92400
C1132       C  0.82642507  0.09944155  0.62940981     0.91600
C1133       C  0.85906938  0.11800846  0.72393990     0.83700
C1134       C  0.77606500  0.18352788  0.62419112     0.90000
O1135       O  0.63799883  0.19879576  0.52346022    -0.73800
O1136       O  0.72583754  0.21144917  0.59235570    -0.74800
O1137       O  0.71007591  0.23546656  0.51981368    -0.63400
O1138       O  0.65947892  0.17154283  0.59801747    -0.71800
O1139       O  0.68353776  0.12195740  0.56893450    -0.71300
O1140       O  0.73537584  0.18409901  0.49517079    -0.62600
O1141       O  0.75162421  0.16036197  0.56765358    -0.75100
O1142       O  0.66298135  0.14872149  0.49642165    -0.73900
Cu1143     Cu  0.68188267  0.20619811  0.55881361     1.04600
Cu1144     Cu  0.70896121  0.15209314  0.53089885     1.04300
C1145       C  0.63634498  0.17281772  0.49892940     0.92400
C1146       C  0.75166618  0.18689184  0.59185754     0.91600
C1147       C  0.73308395  0.21954990  0.49734184     0.83700
C1148       C  0.66757376  0.13652939  0.59706681     0.90000
O1149       O  0.67956577  0.01994444  0.62326413    -0.73800
O1150       O  0.61561259  0.07054538  0.70143042    -0.74800
O1151       O  0.63965174  0.08629490  0.62889273    -0.63400
O1152       O  0.65229143  0.49846998  0.69781541    -0.71800
O1153       O  0.70235628  0.02347536  0.72487947    -0.71300
O1154       O  0.69072540  0.11210872  0.65362605    -0.62600
O1155       O  0.66696823  0.09586796  0.72610290    -0.75100
O1156       O  0.72913970  0.04403235  0.65236853    -0.73900
Cu1157     Cu  0.64489658  0.04234787  0.66244799     1.04600
Cu1158     Cu  0.69898847  0.06945310  0.69039162     1.04300
C1159       C  0.71457630  0.02805610  0.62422757     0.92400
C1160       C  0.63151939  0.09356180  0.72391591     0.91600
C1161       C  0.66420558  0.11213322  0.62940168     0.83700
C1162       C  0.67826206  0.49682937  0.72236367     0.90000
O1163       O  0.85262606  0.51275800  0.52349751    -0.73800
O1164       O  0.76479632  0.50012118  0.59240074    -0.74800
O1165       O  0.78053987  0.47609063  0.51984948    -0.63400
O1166       O  0.83116018  0.04002621  0.59805015    -0.71800
O1167       O  0.80710533  0.08960930  0.56893066    -0.71300
O1168       O  0.75522950  0.02745770  0.49518609    -0.62600
O1169       O  0.73901283  0.05121279  0.56767501    -0.75100
O1170       O  0.82763317  0.06282582  0.49642757    -0.73900
Cu1171     Cu  0.80874535  0.50536372  0.55885288     1.04600
Cu1172     Cu  0.78166327  0.05946654  0.53090841     1.04300
C1173       C  0.85427149  0.03872901  0.49894844     0.92400
C1174       C  0.73897548  0.02468864  0.59189697     0.91600
C1175       C  0.75753317  0.49200667  0.49735536     0.83700
C1176       C  0.82306639  0.07504085  0.59708001     0.90000
O1177       O  0.60094811  0.12525130  0.84235881    -0.73800
O1178       O  0.58826994  0.21309983  0.77347743    -0.74800
O1179       O  0.56102024  0.19158889  0.84802499    -0.63400
O1180       O  0.62496037  0.14103368  0.76982260    -0.71800
O1181       O  0.57360377  0.11570746  0.74515558    -0.71300
O1182       O  0.51144298  0.16750566  0.81892195    -0.62600
O1183       O  0.53820574  0.18809592  0.74641113    -0.75100
O1184       O  0.54987003  0.09943723  0.81763518    -0.73900
Cu1185     Cu  0.59568243  0.16920951  0.80882359     1.04600
Cu1186     Cu  0.54158857  0.14210468  0.78088356     1.04300
C1187       C  0.57639871  0.09940937  0.84185080     0.92400
C1188       C  0.56229717  0.21474442  0.74893224     0.91600
C1189       C  0.52601102  0.18347257  0.84706562     0.83700
C1190       C  0.60905258  0.11801894  0.74733615     0.90000
O1191       O  0.91298032  0.14871220  0.97488979    -0.73800
O1192       O  0.00158377  0.16030836  0.90362002    -0.74800
O1193       O  0.98538919  0.18407905  0.97610854    -0.63400
O1194       O  0.93348893  0.12190989  0.90238782    -0.71800
O1195       O  0.90943657  0.17149105  0.87326337    -0.71300
O1196       O  0.96007104  0.23544149  0.95144459    -0.62600
O1197       O  0.97579687  0.21140082  0.87889899    -0.75100
O1198       O  0.88798425  0.19877397  0.94781107    -0.73900
Cu1199     Cu  0.95894268  0.15206170  0.94039889     1.04600
Cu1200     Cu  0.93185701  0.20616126  0.91245160     1.04300
C1201       C  0.88634197  0.17280857  0.97236525     0.92400
C1202       C  0.00161706  0.18683351  0.87939893     0.91600
C1203       C  0.98308742  0.21952980  0.97393224     0.83700
C1204       C  0.91752786  0.13647583  0.87423682     0.90000
O1205       O  0.88962629  0.08623009  0.84239743    -0.73800
O1206       O  0.90229428  0.49843533  0.77346128    -0.74800
O1207       O  0.92954984  0.01988048  0.84803190    -0.63400
O1208       O  0.86561035  0.07051080  0.76983770    -0.71800
O1209       O  0.91697057  0.09584893  0.74520336    -0.71300
O1210       O  0.97911854  0.04398866  0.81894801    -0.62600
O1211       O  0.95235666  0.02346490  0.74643094    -0.75100
O1212       O  0.94069825  0.11206169  0.81769681    -0.73900
Cu1213     Cu  0.89488473  0.04229695  0.80883403     1.04600
Cu1214     Cu  0.94897601  0.06942367  0.78092493     1.04300
C1215       C  0.91417410  0.11207553  0.84190444     0.92400
C1216       C  0.92826896  0.49681117  0.74892862     0.91600
C1217       C  0.96455818  0.02799939  0.84707908     0.83700
C1218       C  0.88152334  0.09353872  0.74736791     0.90000
O1219       O  0.57765648  0.06282118  0.97483451    -0.73800
O1220       O  0.48900677  0.05116808  0.90361137    -0.74800
O1221       O  0.50526602  0.02744051  0.97609142    -0.63400
O1222       O  0.55708718  0.08958004  0.90232207    -0.71800
O1223       O  0.58114447  0.03999757  0.87323315    -0.71300
O1224       O  0.53056627  0.47607248  0.95144924    -0.62600
O1225       O  0.51479277  0.50008123  0.87890827    -0.75100
O1226       O  0.60264226  0.51274979  0.94779443    -0.73900
Cu1227     Cu  0.53167326  0.05944390  0.94036074     1.04600
Cu1228     Cu  0.55875267  0.50534049  0.91244424     1.04300
C1229       C  0.60429501  0.03872685  0.97232650     0.92400
C1230       C  0.98896206  0.02463639  0.87940933     0.91600
C1231       C  0.50755797  0.49198971  0.97392013     0.83700
C1232       C  0.57304353  0.07500969  0.87418491     0.90000
O1233       O  0.65230154  0.24843124  0.27345806    -0.73800
O1234       O  0.63964750  0.33625464  0.34235730    -0.74800
O1235       O  0.61563505  0.32051284  0.26980609    -0.63400
O1236       O  0.67955645  0.26989980  0.34802208    -0.71800
O1237       O  0.72913429  0.29397894  0.31892992    -0.71300
O1238       O  0.66699941  0.34583972  0.24516874    -0.62600
O1239       O  0.69073218  0.36206324  0.31765869    -0.75100
O1240       O  0.70236685  0.27344332  0.24641707    -0.73900
Cu1241     Cu  0.64490002  0.29230792  0.30881290     1.04600
Cu1242     Cu  0.69899895  0.31941308  0.28089800     1.04300
C1243       C  0.67827434  0.24679483  0.24892448     0.92400
C1244       C  0.66420333  0.36209216  0.34186130     0.91600
C1245       C  0.63155136  0.34353630  0.24733461     0.83700
C1246       C  0.71456728  0.27800671  0.34706761     0.90000
O1247       O  0.73900360  0.30118110  0.40360431    -0.73800
O1248       O  0.82764532  0.31284925  0.47483579    -0.74800
O1249       O  0.80708300  0.33959717  0.40232055    -0.63400
O1250       O  0.75525673  0.27745869  0.47609125    -0.71800
O1251       O  0.78056251  0.22609178  0.45145294    -0.71300
O1252       O  0.83115429  0.29001318  0.37324495    -0.62600
O1253       O  0.85263500  0.26277436  0.44780504    -0.75100
O1254       O  0.76480111  0.25009759  0.37890615    -0.73900
Cu1255     Cu  0.78166536  0.30946346  0.44035886     1.04600
Cu1256     Cu  0.80875362  0.25535981  0.41245076     1.04300
C1257       C  0.73896714  0.27464949  0.37940205     0.92400
C1258       C  0.85428568  0.28875661  0.47233143     0.91600
C1259       C  0.82305233  0.32502491  0.37419170     0.83700
C1260       C  0.75755240  0.24200798  0.47392312     0.90000
O1261       O  0.75160769  0.41033454  0.40359419    -0.73800
O1262       O  0.66298861  0.39872276  0.47484358    -0.74800
O1263       O  0.68351881  0.37193088  0.40234172    -0.63400
O1264       O  0.73538804  0.43409518  0.47607938    -0.71800
O1265       O  0.71007549  0.98545934  0.45141331    -0.71300
O1266       O  0.65946134  0.42150965  0.37321730    -0.62600
O1267       O  0.63799202  0.44878599  0.44776874    -0.75100
O1268       O  0.72582062  0.46142266  0.37886496    -0.73900
Cu1269     Cu  0.70895765  0.40208077  0.44036108     1.04600
Cu1270     Cu  0.68187211  0.45617937  0.41241214     1.04300
C1271       C  0.75164367  0.43685763  0.37937116     0.92400
C1272       C  0.63634980  0.42281896  0.47232233     0.91600
C1273       C  0.66755867  0.38649566  0.37419007     0.83700
C1274       C  0.73308281  0.46954560  0.47390815     0.90000
O1275       O  0.83832502  0.46308751  0.27345988    -0.73800
O1276       O  0.85097342  0.37525769  0.34236697    -0.74800
O1277       O  0.87500684  0.39101617  0.26983246    -0.63400
O1278       O  0.81105424  0.44160353  0.34800667    -0.71800
O1279       O  0.76148073  0.41751803  0.31889938    -0.71300
O1280       O  0.82365156  0.36569291  0.24515955    -0.62600
O1281       O  0.79989860  0.34944480  0.31763452    -0.75100
O1282       O  0.78826133  0.43808281  0.24639240    -0.73900
Cu1283     Cu  0.84572363  0.41920714  0.30881923     1.04600
Cu1284     Cu  0.79163190  0.39210261  0.28087389     1.04300
C1285       C  0.81235409  0.46472927  0.24891258     0.92400
C1286       C  0.82642011  0.34941925  0.34185700     0.91600
C1287       C  0.85910037  0.36799995  0.24734675     0.83700
C1288       C  0.77604376  0.43349171  0.34704174     0.90000
O1289       O  0.53826867  0.43809293  0.22484939    -0.73800
O1290       O  0.54992434  0.34949526  0.15358162    -0.74800
O1291       O  0.57365011  0.36570455  0.22607656    -0.63400
O1292       O  0.51150906  0.41757181  0.15232803    -0.71800
O1293       O  0.56108180  0.44167380  0.12324602    -0.71300
O1294       O  0.62501231  0.39104096  0.20144463    -0.62600
O1295       O  0.60100032  0.37532198  0.12888439    -0.75100
O1296       O  0.58833330  0.46311974  0.19782117    -0.73900
Cu1297     Cu  0.54164777  0.39213400  0.19035380     1.04600
Cu1298     Cu  0.59574226  0.41925661  0.16244745     1.04300
C1299       C  0.56235829  0.46474515  0.22235371     0.92400
C1300       C  0.57645100  0.34947785  0.12937654     0.91600
C1301       C  0.60909781  0.36801176  0.22391170     0.83700
C1302       C  0.52607322  0.43355563  0.12419564     0.90000
O1303       O  0.88800280  0.44877281  0.02345914    -0.73800
O1304       O  0.97584070  0.46146284  0.09235354    -0.74800
O1305       O  0.96007615  0.98545404  0.01980479    -0.63400
O1306       O  0.90949147  0.42154256  0.09802560    -0.71800
O1307       O  0.93355979  0.37195681  0.06895082    -0.71300
O1308       O  0.98538200  0.43408408  0.99517209    -0.62600
O1309       O  0.00163658  0.41037543  0.06766167    -0.75100
O1310       O  0.91299220  0.39869661  0.99643120    -0.73900
Cu1311     Cu  0.93188673  0.45619268  0.05881198     1.04600
Cu1312     Cu  0.95897405  0.40208636  0.03090830     1.04300
C1313       C  0.88635184  0.42278978  0.99893328     0.92400
C1314       C  0.00167448  0.43691067  0.09186020     0.91600
C1315       C  0.98308733  0.46953509  0.99733794     0.83700
C1316       C  0.91759616  0.38653115  0.09708162     0.90000
O1317       O  0.50524945  0.27744676  0.99518175    -0.73800
O1318       O  0.55713946  0.33963279  0.06889329    -0.74800
O1319       O  0.57765273  0.31281970  0.99639439    -0.63400
O1320       O  0.98904846  0.30122709  0.06766361    -0.71800
O1321       O  0.51483920  0.25014175  0.09239511    -0.71300
O1322       O  0.60265331  0.26276310  0.02347809    -0.62600
O1323       O  0.58119699  0.29005841  0.09802468    -0.75100
O1324       O  0.53056764  0.22608777  0.01985266    -0.73900
Cu1325     Cu  0.53169064  0.30947169  0.03088602     1.04600
Cu1326     Cu  0.55878000  0.25537833  0.05884125     1.04300
C1327       C  0.50755150  0.24199640  0.99736248     0.92400
C1328       C  0.57310106  0.32507269  0.09704691     0.91600
C1329       C  0.60429230  0.28872472  0.99891928     0.83700
C1330       C  0.98901589  0.27470593  0.09188892     0.90000
O1331       O  0.95240712  0.27346070  0.22487087    -0.73800
O1332       O  0.94076103  0.36210915  0.15363577    -0.74800
O1333       O  0.91701592  0.34585099  0.22611295    -0.63400
O1334       O  0.97918295  0.29403752  0.15236337    -0.71800
O1335       O  0.92960742  0.26995808  0.12325437    -0.71300
O1336       O  0.86566026  0.32052482  0.20144375    -0.62600
O1337       O  0.88968212  0.33629818  0.12891020    -0.75100
O1338       O  0.90234570  0.24845641  0.19779941    -0.73900
Cu1339     Cu  0.94903347  0.31944659  0.19039333     1.04600
Cu1340     Cu  0.89494079  0.29234336  0.16244917     1.04300
C1341       C  0.92831502  0.24681316  0.22234802     0.92400
C1342       C  0.91423461  0.36213714  0.12941803     0.91600
C1343       C  0.88156712  0.34354117  0.22392903     0.83700
C1344       C  0.96461769  0.27806990  0.12421884     0.90000
O1345       O  0.98904714  0.91036417  0.56767467    -0.73800
O1346       O  0.57764344  0.89873109  0.49641020    -0.74800
O1347       O  0.55712608  0.87195776  0.56892746    -0.63400
O1348       O  0.50525242  0.93410409  0.49518259    -0.71800
O1349       O  0.53058151  0.48547138  0.51982103    -0.71300
O1350       O  0.58121126  0.92153761  0.59801999    -0.62600
O1351       O  0.60266086  0.94879942  0.52344921    -0.75100
O1352       O  0.51486030  0.96144963  0.59237637    -0.73900
Cu1353     Cu  0.53168563  0.90209875  0.53090322     1.04600
Cu1354     Cu  0.55879578  0.95619981  0.55881844     1.04300
C1355       C  0.98902337  0.93689267  0.59188164     0.92400
C1356       C  0.60429076  0.92282559  0.49891214     0.91600
C1357       C  0.57309928  0.88652542  0.59706617     0.83700
C1358       C  0.50755521  0.96955456  0.49735114     0.90000
O1359       O  0.90232159  0.96311546  0.69777567    -0.73800
O1360       O  0.88968022  0.87528696  0.62887110    -0.74800
O1361       O  0.86563673  0.89103207  0.70141236    -0.63400
O1362       O  0.92960723  0.94164116  0.62323093    -0.71800
O1363       O  0.97917515  0.91757717  0.65236391    -0.71300
O1364       O  0.91698928  0.86570678  0.72608434    -0.62600
O1365       O  0.94075925  0.84948920  0.65360400    -0.75100
O1366       O  0.95237093  0.93810846  0.72486309    -0.73900
Cu1367     Cu  0.89492756  0.91923490  0.66241852     1.04600
Cu1368     Cu  0.94901377  0.89213840  0.69037589     1.04300
C1369       C  0.92828099  0.96475270  0.72233619     0.92400
C1370       C  0.91423860  0.84945832  0.62937912     0.91600
C1371       C  0.88154104  0.86801603  0.72390513     0.83700
C1372       C  0.96461799  0.93354000  0.62420930     0.90000
O1373       O  0.58828739  0.74845802  0.69782088    -0.73800
O1374       O  0.60099162  0.83628636  0.62891553    -0.74800
O1375       O  0.62497498  0.82053208  0.70146994    -0.63400
O1376       O  0.56106514  0.76993692  0.62325065    -0.71800
O1377       O  0.51148626  0.79402151  0.65231763    -0.71300
O1378       O  0.57361257  0.84585153  0.72609641    -0.62600
O1379       O  0.54991259  0.86209804  0.65360057    -0.75100
O1380       O  0.53821786  0.77346009  0.72484273    -0.73900
Cu1381     Cu  0.59571399  0.79233693  0.66246350     1.04600
Cu1382     Cu  0.54161544  0.81943984  0.69035972     1.04300
C1383       C  0.56230597  0.74681390  0.72234492     0.92400
C1384       C  0.57644652  0.86212665  0.62940361     0.91600
C1385       C  0.60906113  0.84354997  0.72393374     0.83700
C1386       C  0.52605778  0.77804857  0.62419060     0.90000
O1387       O  0.00163682  0.80121636  0.56763846    -0.73800
O1388       O  0.91299869  0.81285947  0.49639601    -0.74800
O1389       O  0.93356590  0.83963131  0.56890621    -0.63400
O1390       O  0.98538824  0.77747591  0.49515765    -0.71800
O1391       O  0.96006976  0.72611077  0.51981760    -0.71300
O1392       O  0.90949408  0.79004708  0.59800812    -0.62600
O1393       O  0.88800170  0.76278858  0.52345821    -0.75100
O1394       O  0.97583358  0.75012785  0.59235452    -0.73900
Cu1395     Cu  0.95897931  0.80948777  0.53087714     1.04600
Cu1396     Cu  0.93188392  0.75538485  0.55881168     1.04300
C1397       C  0.00166720  0.77468590  0.59185243     0.92400
C1398       C  0.88635544  0.78876315  0.49891461     0.91600
C1399       C  0.91760127  0.82506082  0.59704763     0.83700
C1400       C  0.98308476  0.74202453  0.49733860     0.90000
O1401       O  0.87498273  0.82054159  0.76983104    -0.73800
O1402       O  0.81103381  0.76991149  0.84801318    -0.74800
O1403       O  0.83830878  0.74845444  0.77346550    -0.63400
O1404       O  0.85094924  0.83627235  0.84237855    -0.71800
O1405       O  0.79986612  0.86206997  0.81765352    -0.71300
O1406       O  0.78825021  0.77345575  0.74638929    -0.62600
O1407       O  0.76145921  0.79397768  0.81889278    -0.75100
O1408       O  0.82362610  0.84586430  0.74516476    -0.73900
Cu1409     Cu  0.84570298  0.79232987  0.80882503     1.04600
Cu1410     Cu  0.79160999  0.81942439  0.78087789     1.04300
C1411       C  0.85907487  0.84355772  0.74734097     0.92400
C1412       C  0.77602229  0.77800902  0.84704132     0.91600
C1413       C  0.81234243  0.74681318  0.74891309     0.83700
C1414       C  0.82638810  0.86209825  0.84187714     0.90000
O1415       O  0.68351825  0.83957780  0.90232269    -0.73800
O1416       O  0.73538594  0.77743968  0.97607218    -0.74800
O1417       O  0.75159775  0.80117511  0.90357974    -0.63400
O1418       O  0.66299826  0.81280983  0.97483445    -0.71800
O1419       O  0.63798305  0.76273877  0.94779765    -0.71300
O1420       O  0.72578720  0.75008909  0.87887624    -0.62600
O1421       O  0.71006112  0.72606955  0.95143458    -0.75100
O1422       O  0.65943203  0.78999798  0.87323057    -0.73900
Cu1423     Cu  0.70895735  0.80944058  0.94034719     1.04600
Cu1424     Cu  0.68184951  0.75533768  0.91243234     1.04300
C1425       C  0.66753870  0.82501145  0.87418755     0.92400
C1426       C  0.73308081  0.74198907  0.97390914     0.91600
C1427       C  0.75162217  0.77464809  0.87937138     0.83700
C1428       C  0.63635138  0.78871532  0.97233148     0.90000
O1429       O  0.70235090  0.93811658  0.74643934    -0.73800
O1430       O  0.69069970  0.84945864  0.81765438    -0.74800
O1431       O  0.66696542  0.86572536  0.74517914    -0.63400
O1432       O  0.72911647  0.91754061  0.81894897    -0.71800
O1433       O  0.67954396  0.94160654  0.84804122    -0.71300
O1434       O  0.61560662  0.89103143  0.76982662    -0.62600
O1435       O  0.63962371  0.87525264  0.84236428    -0.75100
O1436       O  0.65228887  0.96310929  0.77348369    -0.73900
Cu1437     Cu  0.69897414  0.89212947  0.78090948     1.04600
Cu1438     Cu  0.64488129  0.91921644  0.80883159     1.04300
C1439       C  0.67826104  0.96475920  0.74894970     0.92400
C1440       C  0.66417351  0.84941661  0.84185857     0.91600
C1441       C  0.63151716  0.86802103  0.74735299     0.83700
C1442       C  0.71455278  0.93350154  0.84708704     0.90000
O1443       O  0.76479067  0.96141582  0.87891329    -0.73800
O1444       O  0.85263174  0.94875903  0.94780667    -0.74800
O1445       O  0.83113463  0.92150382  0.87325605    -0.63400
O1446       O  0.78056356  0.48543620  0.95145046    -0.71800
O1447       O  0.75524888  0.93407156  0.97611472    -0.71300
O1448       O  0.80706191  0.87191715  0.90235318    -0.62600
O1449       O  0.82763889  0.89868480  0.97486587    -0.75100
O1450       O  0.73898842  0.91032958  0.90363413    -0.73900
Cu1451     Cu  0.80874557  0.95616204  0.91245439     1.04600
Cu1452     Cu  0.78165294  0.90205840  0.94038938     1.04300
C1453       C  0.73895495  0.93685952  0.87941948     0.92400
C1454       C  0.85428094  0.92278294  0.97234876     0.91600
C1455       C  0.82302617  0.88649062  0.87421263     0.83700
C1456       C  0.75755250  0.96952324  0.97393373     0.90000
O1457       O  0.83118138  0.67154892  0.09804101    -0.73800
O1458       O  0.78056330  0.73546012  0.01981999    -0.74800
O1459       O  0.76482558  0.71145168  0.09237704    -0.63400
O1460       O  0.85264122  0.69879660  0.02347700    -0.71800
O1461       O  0.82763412  0.64872078  0.99644114    -0.71300
O1462       O  0.73902166  0.66036062  0.06767658    -0.62600
O1463       O  0.75524323  0.68408707  0.99518326    -0.75100
O1464       O  0.80710265  0.62196329  0.06895223    -0.73900
Cu1465     Cu  0.80876870  0.70620042  0.05883093     1.04600
Cu1466     Cu  0.78166827  0.65209237  0.03091817     1.04300
C1467       C  0.82307770  0.63653501  0.09708735     0.92400
C1468       C  0.75754701  0.71953804  0.99734390     0.91600
C1469       C  0.73899286  0.68689046  0.09188161     0.83700
C1470       C  0.85427932  0.67281656  0.99894745     0.90000
O1471       O  0.72915770  0.66756239  0.15235961    -0.73800
O1472       O  0.66699687  0.61568134  0.22609317    -0.74800
O1473       O  0.69075575  0.59946840  0.15360525    -0.63400
O1474       O  0.70237075  0.68808825  0.22486283    -0.71800
O1475       O  0.65231016  0.71308718  0.19778835    -0.71300
O1476       O  0.63967273  0.62526210  0.12887637    -0.62600
O1477       O  0.61563892  0.64099979  0.20142492    -0.75100
O1478       O  0.67958198  0.69162686  0.12323939    -0.73900
Cu1479     Cu  0.69901060  0.64211771  0.19037706     1.04600
Cu1480     Cu  0.64491636  0.66920879  0.16242902     1.04300
C1481       C  0.71459350  0.68352969  0.12421110     0.92400
C1482       C  0.63154907  0.61798792  0.22391899     0.91600
C1483       C  0.66423506  0.59943673  0.12938039     0.83700
C1484       C  0.67827756  0.71472980  0.22234027     0.90000
O1485       O  0.83833153  0.99845134  0.19780014    -0.73800
O1486       O  0.85099538  0.58630156  0.12891820    -0.74800
O1487       O  0.87500742  0.57052994  0.20145892    -0.63400
O1488       O  0.81108321  0.51994290  0.12324358    -0.71800
O1489       O  0.76150530  0.54400680  0.15232872    -0.71300
O1490       O  0.82364575  0.59583534  0.22610123    -0.62600
O1491       O  0.79991471  0.61209329  0.15362131    -0.75100
O1492       O  0.78826489  0.52344116  0.22483958    -0.73900
Cu1493     Cu  0.84573898  0.54234080  0.16245302     1.04600
Cu1494     Cu  0.79164125  0.56942547  0.19036868     1.04300
C1495       C  0.81235626  0.99680008  0.22233028     0.92400
C1496       C  0.82644277  0.61213470  0.12941915     0.91600
C1497       C  0.85909374  0.59354013  0.22393170     0.83700
C1498       C  0.77607294  0.52804156  0.12419510     0.90000
O1499       O  0.75164479  0.55119733  0.06764063    -0.70600
O1500       O  0.66300680  0.56282754  0.99639676    -0.74800
O1501       O  0.68357097  0.58960840  0.06890779    -0.63400
O1502       O  0.73539508  0.52744039  0.99516479    -0.71800
O1503       O  0.71008150  0.97607797  0.01983470    -0.71300
O1504       O  0.65949174  0.54002658  0.09800742    -0.62600
O1505       O  0.63801062  0.01275498  0.02345621    -0.75100
O1506       O  0.72583937  0.00011702  0.09237062    -0.73900
Cu1507     Cu  0.70898612  0.55945998  0.03088000     1.04600
Cu1508     Cu  0.68189028  0.00536040  0.05881975     1.04300
C1509       C  0.75167477  0.52467391  0.09186163     0.92400
C1510       C  0.63636499  0.53872928  0.99891153     0.91600
C1511       C  0.66760049  0.57503992  0.09704746     0.83700
C1512       C  0.73309341  0.99198890  0.99735075     0.90000
O1513       O  0.94070889  0.59946581  0.31768117    -0.73800
O1514       O  0.95239238  0.68809906  0.24643610    -0.74800
O1515       O  0.97913218  0.66754522  0.31895610    -0.63400
O1516       O  0.91699822  0.61570901  0.24518833    -0.71800
O1517       O  0.86563680  0.64102664  0.26981852    -0.71300
O1518       O  0.92955569  0.69163084  0.34802639    -0.62600
O1519       O  0.90232396  0.71310175  0.27345993    -0.75100
O1520       O  0.88963240  0.62527712  0.34237192    -0.73900
Cu1521     Cu  0.94899952  0.64212253  0.28092017     1.04600
Cu1522     Cu  0.89490276  0.66922511  0.30882038     1.04300
C1523       C  0.91417816  0.59943703  0.34188116     0.92400
C1524       C  0.92830462  0.71474481  0.24893485     0.91600
C1525       C  0.96456369  0.68352274  0.34708208     0.83700
C1526       C  0.88155043  0.61800966  0.24735245     0.90000
O1527       O  0.55705897  0.62194794  0.40235939    -0.73800
O1528       O  0.50524521  0.68410984  0.47610860    -0.74800
O1529       O  0.98898949  0.66036435  0.40363377    -0.63400
O1530       O  0.57763067  0.64872158  0.47486636    -0.71800
O1531       O  0.60262808  0.69879271  0.44780490    -0.71300
O1532       O  0.51479365  0.71144745  0.37890746    -0.62600
O1533       O  0.53056011  0.73547351  0.45144206    -0.75100
O1534       O  0.58113548  0.67152885  0.37325597    -0.73900
Cu1535     Cu  0.53164949  0.65209458  0.44038937     1.04600
Cu1536     Cu  0.55874529  0.70619481  0.41245010     1.04300
C1537       C  0.57302672  0.63651539  0.37421813     0.92400
C1538       C  0.50754723  0.71956108  0.47392413     0.91600
C1539       C  0.98895839  0.68689098  0.37941618     0.83700
C1540       C  0.60427416  0.67281710  0.47234776     0.90000
O1541       O  0.56102643  0.51993059  0.34805195    -0.73800
O1542       O  0.62498994  0.57052671  0.26985890    -0.74800
O1543       O  0.60095011  0.58628592  0.34239965    -0.63400
O1544       O  0.58830704  0.99844492  0.27350585    -0.71800
O1545       O  0.53825449  0.52344739  0.24642042    -0.71300
O1546       O  0.54987063  0.61207991  0.31766390    -0.62600
O1547       O  0.57363580  0.59584699  0.24518476    -0.75100
O1548       O  0.51145662  0.54399248  0.31892034    -0.73900
Cu1549     Cu  0.59570235  0.54233133  0.30885845     1.04600
Cu1550     Cu  0.54161422  0.56942343  0.28090053     1.04300
C1551       C  0.52601583  0.52803281  0.34707570     0.92400
C1552       C  0.60908310  0.59353738  0.24736126     0.91600
C1553       C  0.57639128  0.61211449  0.34188870     0.83700
C1554       C  0.56234621  0.99680465  0.24894646     0.90000
O1555       O  0.98537685  0.52746094  0.47610171    -0.73800
O1556       O  0.93349850  0.58960555  0.40235743    -0.74800
O1557       O  0.91297944  0.56282423  0.47487043    -0.63400
O1558       O  0.00158306  0.55120733  0.40361064    -0.71800
O1559       O  0.97577789  0.00011817  0.37890826    -0.71300
O1560       O  0.88797012  0.01275522  0.44782530    -0.62600
O1561       O  0.90942354  0.54002351  0.37326019    -0.75100
O1562       O  0.96005277  0.97609247  0.45146021    -0.73900
Cu1563     Cu  0.95894115  0.55946527  0.44038105     1.04600
Cu1564     Cu  0.93183940  0.00536218  0.41246159     1.04300
C1565       C  0.98307694  0.99201034  0.47393164     0.92400
C1566       C  0.91752878  0.57503729  0.37421728     0.91600
C1567       C  0.88633465  0.53872727  0.47236344     0.83700
C1568       C  0.00161124  0.52467857  0.37940372     0.90000
O1569       O  0.78825355  0.68809929  0.72483959    -0.73800
O1570       O  0.79989580  0.59947144  0.65361177    -0.74800
O1571       O  0.82362129  0.61570379  0.72610272    -0.63400
O1572       O  0.76149555  0.66755507  0.65232723    -0.71800
O1573       O  0.81107588  0.69163394  0.62323876    -0.71300
O1574       O  0.87498706  0.64102835  0.70146567    -0.62600
O1575       O  0.85098170  0.62527824  0.62891349    -0.75100
O1576       O  0.83832191  0.71310809  0.69780090    -0.73900
Cu1577     Cu  0.79162560  0.64212545  0.69036575     1.04600
Cu1578     Cu  0.84572696  0.66922830  0.66245264     1.04300
C1579       C  0.81234608  0.71474731  0.72233102     0.92400
C1580       C  0.82642517  0.59944157  0.62940979     0.91600
C1581       C  0.85906943  0.61800853  0.72393986     0.83700
C1582       C  0.77606498  0.68352795  0.62419111     0.90000
O1583       O  0.63799873  0.69879566  0.52346026    -0.73800
O1584       O  0.72583746  0.71144915  0.59235572    -0.74800
O1585       O  0.71007580  0.73546655  0.51981370    -0.63400
O1586       O  0.65947881  0.67154278  0.59801746    -0.71800
O1587       O  0.68353780  0.62195739  0.56893450    -0.71300
O1588       O  0.73537578  0.68409906  0.49517075    -0.62600
O1589       O  0.75162418  0.66036204  0.56765352    -0.75100
O1590       O  0.66298135  0.64872145  0.49642167    -0.73900
Cu1591     Cu  0.68188261  0.70619808  0.55881363     1.04600
Cu1592     Cu  0.70896120  0.65209318  0.53089884     1.04300
C1593       C  0.63634479  0.67281792  0.49892949     0.92400
C1594       C  0.75166617  0.68689189  0.59185751     0.91600
C1595       C  0.73308385  0.71954995  0.49734184     0.83700
C1596       C  0.66757390  0.63652933  0.59706682     0.90000
O1597       O  0.67956573  0.51994449  0.62326412    -0.73800
O1598       O  0.61561272  0.57054549  0.70143048    -0.74800
O1599       O  0.63965178  0.58629501  0.62889278    -0.63400
O1600       O  0.65229151  0.99846985  0.69781543    -0.71800
O1601       O  0.70235622  0.52347532  0.72487949    -0.71300
O1602       O  0.69072554  0.61210868  0.65362604    -0.62600
O1603       O  0.66696841  0.59586804  0.72610285    -0.75100
O1604       O  0.72913976  0.54403230  0.65236846    -0.73900
Cu1605     Cu  0.64489662  0.54234799  0.66244799     1.04600
Cu1606     Cu  0.69898848  0.56945308  0.69039158     1.04300
C1607       C  0.71457638  0.52805603  0.62422757     0.92400
C1608       C  0.63151886  0.59356159  0.72391572     0.91600
C1609       C  0.66420577  0.61213326  0.62940172     0.83700
C1610       C  0.67826207  0.99682935  0.72236360     0.90000
O1611       O  0.85262598  0.01275804  0.52349759    -0.73800
O1612       O  0.76479629  0.00012121  0.59240074    -0.74800
O1613       O  0.78053975  0.97609082  0.51984941    -0.63400
O1614       O  0.83116036  0.54002622  0.59805012    -0.71800
O1615       O  0.80710533  0.58960927  0.56893071    -0.71300
O1616       O  0.75522951  0.52745739  0.49518612    -0.62600
O1617       O  0.73901278  0.55121277  0.56767502    -0.75100
O1618       O  0.82763321  0.56282578  0.49642758    -0.73900
Cu1619     Cu  0.80874530  0.00536375  0.55885290     1.04600
Cu1620     Cu  0.78166327  0.55946646  0.53090843     1.04300
C1621       C  0.85427151  0.53872908  0.49894838     0.92400
C1622       C  0.73897533  0.52468866  0.59189695     0.91600
C1623       C  0.75753359  0.99200593  0.49735575     0.83700
C1624       C  0.82306640  0.57504071  0.59708005     0.90000
O1625       O  0.60094804  0.62525137  0.84235875    -0.73800
O1626       O  0.58826989  0.71309987  0.77347749    -0.74800
O1627       O  0.56102016  0.69158891  0.84802491    -0.63400
O1628       O  0.62496027  0.64103370  0.76982249    -0.71800
O1629       O  0.57360357  0.61570754  0.74515559    -0.71300
O1630       O  0.51144284  0.66750572  0.81892194    -0.62600
O1631       O  0.53820573  0.68809596  0.74641113    -0.75100
O1632       O  0.54986994  0.59943729  0.81763518    -0.73900
Cu1633     Cu  0.59568237  0.66920953  0.80882356     1.04600
Cu1634     Cu  0.54158848  0.64210472  0.78088356     1.04300
C1635       C  0.57639863  0.59940935  0.84185077     0.92400
C1636       C  0.56229710  0.71474444  0.74893221     0.91600
C1637       C  0.52601087  0.68347244  0.84706555     0.83700
C1638       C  0.60905314  0.61801917  0.74733641     0.90000
O1639       O  0.91298031  0.64871231  0.97488981    -0.73800
O1640       O  0.00158363  0.66030834  0.90362001    -0.74800
O1641       O  0.98538912  0.68407894  0.97610852    -0.63400
O1642       O  0.93348888  0.62190990  0.90238781    -0.71800
O1643       O  0.90943647  0.67149104  0.87326334    -0.71300
O1644       O  0.96007107  0.73544147  0.95144466    -0.62600
O1645       O  0.97579686  0.71140087  0.87889893    -0.75100
O1646       O  0.88798421  0.69877403  0.94781106    -0.73900
Cu1647     Cu  0.95894265  0.65206172  0.94039888     1.04600
Cu1648     Cu  0.93185700  0.70616127  0.91245158     1.04300
C1649       C  0.88634191  0.67280868  0.97236522     0.92400
C1650       C  0.00161703  0.68683348  0.87939890     0.91600
C1651       C  0.98308736  0.71952998  0.97393212     0.83700
C1652       C  0.91752780  0.63647580  0.87423679     0.90000
O1653       O  0.88962622  0.58623021  0.84239745    -0.73800
O1654       O  0.90229433  0.99843537  0.77346128    -0.74800
O1655       O  0.92954978  0.51988054  0.84803193    -0.63400
O1656       O  0.86561026  0.57051086  0.76983769    -0.71800
O1657       O  0.91697053  0.59584879  0.74520332    -0.71300
O1658       O  0.97911853  0.54398855  0.81894798    -0.62600
O1659       O  0.95235666  0.52346483  0.74643098    -0.75100
O1660       O  0.94069825  0.61206161  0.81769681    -0.73900
Cu1661     Cu  0.89488469  0.54229697  0.80883405     1.04600
Cu1662     Cu  0.94897597  0.56942360  0.78092491     1.04300
C1663       C  0.91417411  0.61207560  0.84190444     0.92400
C1664       C  0.92826901  0.99681127  0.74892858     0.91600
C1665       C  0.96455819  0.52799943  0.84707908     0.83700
C1666       C  0.88152318  0.59353861  0.74736795     0.90000
O1667       O  0.57765644  0.56282119  0.97483458    -0.73800
O1668       O  0.48900669  0.55116820  0.90361130    -0.74800
O1669       O  0.50526599  0.52744046  0.97609130    -0.63400
O1670       O  0.55708719  0.58958006  0.90232209    -0.71800
O1671       O  0.58114437  0.53999754  0.87323317    -0.71300
O1672       O  0.53056623  0.97607252  0.95144932    -0.62600
O1673       O  0.51479284  0.00008119  0.87890824    -0.75100
O1674       O  0.60264226  0.01274972  0.94779444    -0.73900
Cu1675     Cu  0.53167324  0.55944395  0.94036074     1.04600
Cu1676     Cu  0.55875270  0.00534048  0.91244424     1.04300
C1677       C  0.60429497  0.53872690  0.97232659     0.92400
C1678       C  0.98896187  0.52463650  0.87940937     0.91600
C1679       C  0.50755805  0.99198959  0.97392011     0.83700
C1680       C  0.57304349  0.57500972  0.87418492     0.90000
O1681       O  0.65230161  0.74843127  0.27345807    -0.73800
O1682       O  0.63964750  0.83625455  0.34235727    -0.74800
O1683       O  0.61563510  0.82051276  0.26980602    -0.63400
O1684       O  0.67955647  0.76989970  0.34802205    -0.71800
O1685       O  0.72913426  0.79397899  0.31892998    -0.71300
O1686       O  0.66699951  0.84583967  0.24516879    -0.62600
O1687       O  0.69073216  0.86206324  0.31765873    -0.75100
O1688       O  0.70236691  0.77344334  0.24641716    -0.73900
Cu1689     Cu  0.64490008  0.79230790  0.30881284     1.04600
Cu1690     Cu  0.69899904  0.81941309  0.28089809     1.04300
C1691       C  0.67827434  0.74679488  0.24892450     0.92400
C1692       C  0.66420323  0.86209209  0.34186134     0.91600
C1693       C  0.63155177  0.84353640  0.24733448     0.83700
C1694       C  0.71456738  0.77800677  0.34706761     0.90000
O1695       O  0.73900356  0.80118121  0.40360435    -0.73800
O1696       O  0.82764530  0.81284926  0.47483582    -0.74800
O1697       O  0.80708296  0.83959723  0.40232051    -0.63400
O1698       O  0.75525663  0.77745878  0.47609126    -0.71800
O1699       O  0.78056241  0.72609187  0.45145296    -0.71300
O1700       O  0.83115425  0.79001318  0.37324493    -0.62600
O1701       O  0.85263496  0.76277441  0.44780503    -0.75100
O1702       O  0.76480107  0.75009766  0.37890621    -0.73900
Cu1703     Cu  0.78166532  0.80946351  0.44035887     1.04600
Cu1704     Cu  0.80875356  0.75535982  0.41245076     1.04300
C1705       C  0.73896708  0.77464971  0.37940211     0.92400
C1706       C  0.85428567  0.78875658  0.47233139     0.91600
C1707       C  0.82305236  0.82502488  0.37419167     0.83700
C1708       C  0.75755229  0.74200806  0.47392313     0.90000
O1709       O  0.75160780  0.91033456  0.40359410    -0.73800
O1710       O  0.66298878  0.89872284  0.47484356    -0.74800
O1711       O  0.68351892  0.87193094  0.40234175    -0.63400
O1712       O  0.73538817  0.93409503  0.47607934    -0.71800
O1713       O  0.71007525  0.48545937  0.45141321    -0.71300
O1714       O  0.65946152  0.92150968  0.37321730    -0.62600
O1715       O  0.63799210  0.94878603  0.44776872    -0.75100
O1716       O  0.72582068  0.96142272  0.37886501    -0.73900
Cu1717     Cu  0.70895775  0.90208083  0.44036103     1.04600
Cu1718     Cu  0.68187218  0.95617942  0.41241216     1.04300
C1719       C  0.75164378  0.93685764  0.37937111     0.92400
C1720       C  0.63634995  0.92281901  0.47232233     0.91600
C1721       C  0.66755868  0.88649570  0.37419010     0.83700
C1722       C  0.73308251  0.96954646  0.47390779     0.90000
O1723       O  0.83832505  0.96308765  0.27345992    -0.73800
O1724       O  0.85097338  0.87525772  0.34236700    -0.74800
O1725       O  0.87500681  0.89101628  0.26983252    -0.63400
O1726       O  0.81105432  0.94160360  0.34800664    -0.71800
O1727       O  0.76148082  0.91751810  0.31889930    -0.71300
O1728       O  0.82365163  0.86569294  0.24515961    -0.62600
O1729       O  0.79989860  0.84944481  0.31763454    -0.75100
O1730       O  0.78826145  0.93808279  0.24639235    -0.73900
Cu1731     Cu  0.84572363  0.91920720  0.30881924     1.04600
Cu1732     Cu  0.79163193  0.89210265  0.28087387     1.04300
C1733       C  0.81235431  0.96472939  0.24891266     0.92400
C1734       C  0.82642016  0.84941929  0.34185701     0.91600
C1735       C  0.85910013  0.86799994  0.24734676     0.83700
C1736       C  0.77604380  0.93349178  0.34704166     0.90000
O1737       O  0.53826859  0.93809297  0.22484941    -0.73800
O1738       O  0.54992421  0.84949527  0.15358157    -0.74800
O1739       O  0.57365021  0.86570456  0.22607653    -0.63400
O1740       O  0.51150899  0.91757193  0.15232808    -0.71800
O1741       O  0.56108182  0.94167366  0.12324596    -0.71300
O1742       O  0.62501235  0.89104100  0.20144455    -0.62600
O1743       O  0.60100031  0.87532193  0.12888448    -0.75100
O1744       O  0.58833327  0.96311967  0.19782114    -0.73900
Cu1745     Cu  0.54164772  0.89213405  0.19035379     1.04600
Cu1746     Cu  0.59574231  0.91925662  0.16244742     1.04300
C1747       C  0.56235830  0.96474511  0.22235369     0.92400
C1748       C  0.57645090  0.84947781  0.12937652     0.91600
C1749       C  0.60909758  0.86801165  0.22391180     0.83700
C1750       C  0.52607327  0.93355562  0.12419561     0.90000
O1751       O  0.88800278  0.94877282  0.02345914    -0.73800
O1752       O  0.97584073  0.96146290  0.09235356    -0.74800
O1753       O  0.96007623  0.48545394  0.01980474    -0.63400
O1754       O  0.90949150  0.92154259  0.09802561    -0.71800
O1755       O  0.93355984  0.87195690  0.06895080    -0.71300
O1756       O  0.98538193  0.93408417  0.99517214    -0.62600
O1757       O  0.00163657  0.91037551  0.06766165    -0.75100
O1758       O  0.91299216  0.89869663  0.99643119    -0.73900
Cu1759     Cu  0.93188671  0.95619272  0.05881199     1.04600
Cu1760     Cu  0.95897407  0.90208644  0.03090831     1.04300
C1761       C  0.88635181  0.92278975  0.99893329     0.92400
C1762       C  0.00167435  0.93691085  0.09186021     0.91600
C1763       C  0.98308710  0.96953526  0.99733800     0.83700
C1764       C  0.91759609  0.88653119  0.09708160     0.90000
O1765       O  0.50524938  0.77744677  0.99518180    -0.73800
O1766       O  0.55713937  0.83963271  0.06889327    -0.74800
O1767       O  0.57765267  0.81281955  0.99639425    -0.63400
O1768       O  0.98904841  0.80122702  0.06766360    -0.71800
O1769       O  0.51483914  0.75014175  0.09239512    -0.71300
O1770       O  0.60265329  0.76276309  0.02347818    -0.62600
O1771       O  0.58119686  0.79005833  0.09802471    -0.75100
O1772       O  0.53056762  0.72608782  0.01985263    -0.73900
Cu1773     Cu  0.53169062  0.80947166  0.03088601     1.04600
Cu1774     Cu  0.55877994  0.75537836  0.05884124     1.04300
C1775       C  0.50755162  0.74199619  0.99736256     0.92400
C1776       C  0.57310098  0.82507265  0.09704690     0.91600
C1777       C  0.60429224  0.78872473  0.99891924     0.83700
C1778       C  0.98901585  0.77470585  0.09188892     0.90000
O1779       O  0.95240705  0.77346068  0.22487090    -0.73800
O1780       O  0.94076103  0.86210921  0.15363576    -0.74800
O1781       O  0.91701592  0.84585101  0.22611288    -0.63400
O1782       O  0.97918293  0.79403752  0.15236336    -0.71800
O1783       O  0.92960736  0.76995817  0.12325437    -0.71300
O1784       O  0.86566019  0.82052485  0.20144381    -0.62600
O1785       O  0.88968210  0.83629824  0.12891031    -0.75100
O1786       O  0.90234567  0.74845639  0.19779934    -0.73900
Cu1787     Cu  0.94903352  0.81944661  0.19039331     1.04600
Cu1788     Cu  0.89494079  0.79234342  0.16244922     1.04300
C1789       C  0.92831489  0.74681315  0.22234798     0.92400
C1790       C  0.91423455  0.86213716  0.12941804     0.91600
C1791       C  0.88156740  0.84354125  0.22392917     0.83700
C1792       C  0.96461762  0.77806989  0.12421883     0.90000
loop_ 
_geom_bond_atom_site_label_1 
_geom_bond_atom_site_label_2 
_geom_bond_distance 
_geom_bond_site_symmetry_2 
_ccdc_geom_bond_type 
O1           C11   1.284       .  A
O1         Cu905   2.034       .  S
O2           C12   1.283       .  A
O2           Cu9   2.056       .  S
O3           C13   1.270       .  A
O3           Cu9   1.958       .  S
O4           C14   1.268       .  A
O4           Cu9   1.957       .  S
O5          C462   1.282       .  A
O5         Cu458   2.014       .  S
O6           C13   1.281       .  A
O6          Cu10   2.035       .  S
O7           C12   1.279       .  A
O7          Cu10   2.031       .  S
O8          C907   1.270   1_455  A
O8          Cu10   1.984       .  S
Cu9         O897   2.034   1_455  S
Cu9         Cu10   2.377       .  S
Cu10        O453   2.014       .  S
C11         O904   1.270       .  A
C11          C28   1.455       .  S
C12         C376   1.488       .  S
C13          C40   1.454       .  S
C14         O453   1.282       .  A
C14        C1117   1.451   1_455  S
O15          C25   1.279       .  A
O15         Cu23   2.030       .  S
O16          C26   1.270       .  A
O16         Cu23   1.984       .  S
O17          C27   1.282       .  A
O17         Cu23   2.014       .  S
O18          C28   1.281       .  A
O18         Cu23   2.035       .  S
O19          C28   1.270       .  A
O19         Cu24   1.959       .  S
O20          C27   1.268       .  A
O20         Cu24   1.957       .  S
O21          C26   1.284       .  A
O21         Cu24   2.034       .  S
O22          C25   1.283       .  A
O22         Cu24   2.056       .  S
Cu23        Cu24   2.377       .  S
C25         C320   1.488       .  S
C26          C55   1.455       .  S
C27          C67   1.451       .  S
O29          C39   1.279       .  A
O29         Cu37   2.030       .  S
O30          C40   1.270       .  A
O30         Cu37   1.984       .  S
O31          C41   1.282       .  A
O31         Cu37   2.013       .  S
O32          C42   1.281       .  A
O32         Cu37   2.035       .  S
O33          C42   1.270       .  A
O33         Cu38   1.958       .  S
O34          C41   1.268       .  A
O34         Cu38   1.957       .  S
O35          C40   1.284       .  A
O35         Cu38   2.034       .  S
O36          C39   1.283       .  A
O36         Cu38   2.056       .  S
Cu37        Cu38   2.377       .  S
C39         C292   1.488       .  S
C41          C97   1.451       .  S
C42         C949   1.454       .  S
O43          C53   1.284       .  A
O43         Cu51   2.033       .  S
O44          C54   1.283       .  A
O44         Cu51   2.056       .  S
O45          C55   1.270       .  A
O45         Cu51   1.959       .  S
O46          C56   1.268       .  A
O46         Cu51   1.957       .  S
O47          C56   1.282       .  A
O47         Cu52   2.014       .  S
O48          C55   1.281       .  A
O48         Cu52   2.035       .  S
O49          C54   1.279       .  A
O49         Cu52   2.030       .  S
O50          C53   1.270       .  A
O50         Cu52   1.983       .  S
Cu51        Cu52   2.377       .  S
C53         C938   1.454       .  S
C54         C362   1.488       .  S
C56        C1090   1.451       .  S
O57          C67   1.282       .  A
O57         Cu65   2.014       .  S
O58          C68   1.281       .  A
O58         Cu65   2.035       .  S
O59          C69   1.279       .  A
O59         Cu65   2.030       .  S
O60          C70   1.270       .  A
O60         Cu65   1.984       .  S
O61          C70   1.284       .  A
O61         Cu66   2.034       .  S
O62          C69   1.283       .  A
O62         Cu66   2.056       .  S
O63          C68   1.270       .  A
O63         Cu66   1.959       .  S
O64          C67   1.268       .  A
O64         Cu66   1.957       .  S
Cu65        Cu66   2.377       .  S
C68          C83   1.455       .  S
C69         C235   1.488       .  S
C70         C111   1.455       .  S
O71          C81   1.270       .  A
O71         Cu79   1.958       .  S
O72          C82   1.268       .  A
O72         Cu79   1.957       .  S
O73          C83   1.284       .  A
O73         Cu79   2.034       .  S
O74          C84   1.283       .  A
O74         Cu79   2.056       .  S
O75          C84   1.279       .  A
O75         Cu80   2.031       .  S
O76          C83   1.270       .  A
O76         Cu80   1.984       .  S
O77          C82   1.282       .  A
O77         Cu80   2.014       .  S
O78          C81   1.281       .  A
O78         Cu80   2.035       .  S
Cu79        Cu80   2.377       .  S
C81          C96   1.454       .  S
C82         C124   1.451       .  S
C84         C433   1.488       .  S
O85          C95   1.283       .  A
O85         Cu93   2.056       .  S
O86          C96   1.284       .  A
O86         Cu93   2.033       .  S
O87          C97   1.268       .  A
O87         Cu93   1.957       .  S
O88          C98   1.270       .  A
O88         Cu93   1.958       .  S
O89          C98   1.281       .  A
O89         Cu94   2.035       .  S
O90          C97   1.282       .  A
O90         Cu94   2.013       .  S
O91          C96   1.270       .  A
O91         Cu94   1.984       .  S
O92          C95   1.279       .  A
O92         Cu94   2.030       .  S
Cu93        Cu94   2.377       .  S
C95         C266   1.488       .  S
C98         C109   1.454       .  S
O99         C109   1.270       .  A
O99        Cu107   1.984       .  S
O100        C110   1.279       .  A
O100       Cu107   2.030       .  S
O101        C111   1.281       .  A
O101       Cu107   2.035       .  S
O102        C560   1.282       .  A
O102       Cu555   2.014       .  S
O103        C112   1.268       .  A
O103       Cu108   1.957       .  S
O104        C111   1.270       .  A
O104       Cu108   1.959       .  S
O105        C110   1.283       .  A
O105       Cu108   2.056       .  S
O106        C109   1.284       .  A
O106       Cu108   2.034       .  S
Cu107       O550   2.014       .  S
Cu107      Cu108   2.377       .  S
C110        C417   1.488       .  S
C112        O550   1.282       .  A
C112        C168   1.451       .  S
O113        C123   1.281       .  A
O113       Cu121   2.035       .  S
O114        C124   1.282   1_554  A
O114       Cu121   2.014       .  S
O115        C125   1.270       .  A
O115       Cu121   1.984       .  S
O116        C126   1.279   1_554  A
O116       Cu121   2.030       .  S
O117        C126   1.283       .  A
O117       Cu122   2.056   1_556  S
O118        C125   1.284       .  A
O118       Cu122   2.034       .  S
O119        C124   1.268       .  A
O119       Cu122   1.957   1_556  S
O120        C123   1.270       .  A
O120       Cu122   1.958       .  S
Cu121      Cu122   2.377       .  S
C123        C152   1.454       .  S
C125        C137   1.455       .  S
C126        C305   1.488       .  S
O127        C137   1.270       .  A
O127       Cu135   1.958       .  S
O128        C138   1.268       .  A
O128       Cu135   1.957       .  S
O129        C139   1.284       .  A
O129       Cu135   2.034       .  S
O130        C140   1.283       .  A
O130       Cu135   2.056       .  S
O131        C140   1.279       .  A
O131       Cu136   2.030       .  S
O132        C139   1.270       .  A
O132       Cu136   1.984       .  S
O133        C138   1.282       .  A
O133       Cu136   2.014       .  S
O134        C137   1.281       .  A
O134       Cu136   2.035       .  S
Cu135      Cu136   2.377       .  S
C138        C208   1.451       .  S
C139        C167   1.455       .  S
C140        C347   1.488       .  S
O141        C151   1.279       .  A
O141       Cu597   2.030       .  S
O142        C152   1.270       .  A
O142       Cu149   1.984       .  S
O143        C153   1.282       .  A
O143       Cu149   2.013       .  S
O144        C154   1.281       .  A
O144       Cu149   2.035       .  S
O145        C154   1.270       .  A
O145       Cu150   1.958       .  S
O146        C153   1.268       .  A
O146       Cu150   1.957       .  S
O147        C152   1.284       .  A
O147       Cu150   2.033       .  S
O148        C599   1.283   1_545  A
O148       Cu150   2.056       .  S
Cu149       O589   2.030   1_545  S
Cu149      Cu150   2.377       .  S
C151        O596   1.283       .  A
C151        C389   1.488       .  S
C153        C182   1.451       .  S
C154        C165   1.454       .  S
O155        C165   1.284       .  A
O155       Cu163   2.033       .  S
O156        C166   1.283       .  A
O156       Cu163   2.056   1_556  S
O157        C167   1.270       .  A
O157       Cu163   1.959       .  S
O158        C616   1.268   1_545  A
O158       Cu163   1.957   1_556  S
O159        C168   1.282   1_554  A
O159       Cu164   2.014       .  S
O160        C167   1.281       .  A
O160       Cu612   2.035       .  S
O161        C614   1.279   1_554  A
O161       Cu164   2.030       .  S
O162        C613   1.270       .  A
O162       Cu164   1.984       .  S
Cu163      Cu612   2.377       .  S
Cu164       O608   2.035       .  S
Cu164      Cu611   2.377       .  S
C165        O610   1.270       .  A
C166        O609   1.279   1_556  A
C166        C333   1.488       .  S
C168        O606   1.268       .  A
O169        C179   1.284       .  A
O169       Cu177   2.034       .  S
O170        C180   1.283       .  A
O170       Cu177   2.056       .  S
O171        C181   1.270       .  A
O171       Cu177   1.958       .  S
O172        C182   1.268       .  A
O172       Cu177   1.957       .  S
O173        C182   1.282       .  A
O173       Cu178   2.013       .  S
O174        C181   1.281       .  A
O174       Cu178   2.035       .  S
O175        C180   1.279       .  A
O175       Cu178   2.030       .  S
O176        C179   1.270       .  A
O176       Cu178   1.984       .  S
Cu177      Cu178   2.377       .  S
C179        C222   1.454       .  S
C180        C445   1.488       .  S
C181        C195   1.454       .  S
O183        C193   1.270       .  A
O183       Cu191   1.959       .  S
O184        C194   1.268       .  A
O184       Cu191   1.957       .  S
O185        C195   1.284       .  A
O185      Cu1087   2.033       .  S
O186        C196   1.283       .  A
O186       Cu191   2.056       .  S
O187        C196   1.279       .  A
O187       Cu192   2.030       .  S
O188       C1091   1.270   1_455  A
O188       Cu192   1.984       .  S
O189        C194   1.282       .  A
O189       Cu192   2.014       .  S
O190        C193   1.281       .  A
O190       Cu192   2.035       .  S
Cu191      O1081   2.033   1_455  S
Cu191      Cu192   2.377       .  S
C193        C209   1.455       .  S
C194        C952   1.451   1_455  S
C195       O1084   1.270       .  A
C196        C249   1.488       .  S
O197        C207   1.281       .  A
O197       Cu205   2.035       .  S
O198        C208   1.282       .  A
O198       Cu205   2.014       .  S
O199        C209   1.270       .  A
O199       Cu205   1.984       .  S
O200        C210   1.279       .  A
O200       Cu653   2.031       .  S
O201        C658   1.283   1_545  A
O201       Cu206   2.056       .  S
O202        C209   1.284       .  A
O202       Cu206   2.034       .  S
O203        C208   1.268       .  A
O203       Cu206   1.957       .  S
O204        C207   1.270       .  A
O204       Cu206   1.959       .  S
Cu205       O648   2.031   1_545  S
Cu205      Cu206   2.377       .  S
C207       C1120   1.455       .  S
C210        O649   1.283       .  A
C210        C403   1.488       .  S
O211        C669   1.268   1_545  A
O211       Cu219   1.957       .  S
O212        C222   1.270       .  A
O212       Cu219   1.958       .  S
O213        C223   1.283       .  A
O213       Cu219   2.056       .  S
O214        C224   1.284       .  A
O214       Cu219   2.034       .  S
O215        C672   1.270       .  A
O215       Cu220   1.984       .  S
O216        C671   1.279       .  A
O216       Cu220   2.031       .  S
O217        C222   1.281       .  A
O217       Cu668   2.035       .  S
O218        C221   1.282       .  A
O218       Cu220   2.014       .  S
Cu219      Cu668   2.377       .  S
Cu220       O665   2.035       .  S
Cu220      Cu667   2.377       .  S
C221        O659   1.268       .  A
C221        C910   1.451       .  S
C223        O664   1.279       .  A
C223        C277   1.488       .  S
C224        O663   1.270       .  A
C224       C1103   1.455       .  S
O225        C235   1.283       .  A
O225       Cu233   2.056       .  S
O226        C236   1.284       .  A
O226       Cu233   2.034       .  S
O227        C237   1.268       .  A
O227       Cu233   1.957       .  S
O228        C238   1.270       .  A
O228       Cu233   1.958       .  S
O229        C238   1.281       .  A
O229       Cu234   2.035       .  S
O230        C237   1.282       .  A
O230       Cu234   2.013       .  S
O231        C236   1.270       .  A
O231       Cu234   1.984       .  S
O232        C235   1.279       .  A
O232       Cu234   2.030       .  S
Cu233      Cu234   2.377       .  S
C236        C280   1.455       .  S
C237        C322   1.451       .  S
C238        C250   1.454       .  S
O239        C249   1.279       .  A
O239       Cu247   2.030       .  S
O240        C250   1.270       .  A
O240       Cu247   1.984       .  S
O241        C251   1.282       .  A
O241       Cu247   2.013       .  S
O242        C252   1.281       .  A
O242       Cu247   2.035       .  S
O243        C252   1.270       .  A
O243       Cu248   1.958       .  S
O244        C251   1.268       .  A
O244       Cu248   1.957       .  S
O245        C250   1.284       .  A
O245       Cu248   2.033       .  S
O246        C249   1.283       .  A
O246       Cu248   2.056       .  S
Cu247      Cu248   2.377       .  S
C251        C364   1.451       .  S
C252        C265   1.454       .  S
O253        C263   1.281       .  A
O253       Cu261   2.035       .  S
O254        C264   1.282       .  A
O254       Cu261   2.014       .  S
O255        C265   1.270       .  A
O255       Cu261   1.984       .  S
O256        C266   1.279       .  A
O256       Cu709   2.030       .  S
O257        C714   1.283   1_545  A
O257       Cu262   2.056       .  S
O258        C265   1.284       .  A
O258       Cu262   2.033       .  S
O259        C264   1.268       .  A
O259       Cu262   1.957       .  S
O260        C263   1.270       .  A
O260       Cu262   1.959       .  S
Cu261       O704   2.030   1_545  S
Cu261      Cu262   2.377       .  S
C263        C278   1.455       .  S
C264        C294   1.451       .  S
C266        O705   1.283       .  A
O267        C725   1.279       .  A
O267       Cu275   2.031       .  S
O268        C726   1.270       .  A
O268       Cu275   1.984       .  S
O269        C279   1.282       .  A
O269       Cu275   2.014       .  S
O270        C280   1.281       .  A
O270       Cu723   2.035       .  S
O271        C280   1.270       .  A
O271       Cu276   1.958       .  S
O272        C727   1.268   1_545  A
O272       Cu276   1.957       .  S
O273        C278   1.284       .  A
O273       Cu276   2.034       .  S
O274        C277   1.283       .  A
O274       Cu276   2.056       .  S
Cu275       O718   2.035       .  S
Cu275      Cu724   2.377       .  S
Cu276      Cu723   2.377       .  S
C277        O715   1.279       .  A
C278        O716   1.270       .  A
C279        O720   1.268       .  A
C279        C378   1.451       .  S
O281        C291   1.270       .  A
O281       Cu289   1.984       .  S
O282        C292   1.279       .  A
O282       Cu289   2.030       .  S
O283        C293   1.281       .  A
O283       Cu289   2.035       .  S
O284        C294   1.282       .  A
O284       Cu289   2.014       .  S
O285        C294   1.268       .  A
O285       Cu290   1.957       .  S
O286        C293   1.270       .  A
O286       Cu290   1.959       .  S
O287        C292   1.283       .  A
O287       Cu290   2.056       .  S
O288        C291   1.284       .  A
O288       Cu290   2.034       .  S
Cu289      Cu290   2.377       .  S
C291        C336   1.454       .  S
C293       C1202   1.455       .  S
O295        C305   1.283       .  A
O295       Cu303   2.056       .  S
O296        C306   1.284       .  A
O296       Cu303   2.034       .  S
O297        C307   1.268       .  A
O297       Cu303   1.957       .  S
O298        C308   1.270       .  A
O298       Cu303   1.958       .  S
O299        C308   1.281       .  A
O299       Cu304   2.035       .  S
O300        C307   1.282       .  A
O300       Cu304   2.014       .  S
O301        C306   1.270       .  A
O301       Cu304   1.984       .  S
O302        C305   1.279       .  A
O302       Cu304   2.030       .  S
Cu303      Cu304   2.377       .  S
C306       C1189   1.455       .  S
C307       C1327   1.451       .  S
C308        C319   1.455       .  S
O309        C319   1.270       .  A
O309       Cu317   1.984       .  S
O310        C320   1.279       .  A
O310       Cu765   2.031       .  S
O311        C321   1.281       .  A
O311       Cu317   2.035       .  S
O312        C322   1.282       .  A
O312       Cu317   2.014       .  S
O313        C322   1.268       .  A
O313       Cu318   1.957       .  S
O314        C321   1.270       .  A
O314       Cu318   1.958       .  S
O315        C768   1.283   1_545  A
O315       Cu318   2.056       .  S
O316        C319   1.284       .  A
O316       Cu318   2.034       .  S
Cu317       O758   2.030   1_545  S
Cu317      Cu318   2.377       .  S
C320        O763   1.283       .  A
C321        C334   1.454       .  S
O323        C333   1.283       .  A
O323       Cu331   2.056       .  S
O324       C1230   1.284       .  A
O324       Cu331   2.033   1_655  S
O325        C783   1.268   1_545  A
O325       Cu331   1.957       .  S
O326        C336   1.270       .  A
O326       Cu331   1.958       .  S
O327        C336   1.281       .  A
O327       Cu780   2.035       .  S
O328        C335   1.282       .  A
O328       Cu332   2.013       .  S
O329       C1678   1.270   1_455  A
O329       Cu332   1.984       .  S
O330        C781   1.279       .  A
O330       Cu332   2.030       .  S
Cu331      Cu780   2.377       .  S
Cu332       O775   2.035       .  S
Cu332      Cu779   2.377       .  S
C333        O778   1.279       .  A
C334       O1220   1.284       .  A
C334       O1673   1.270       .  A
C335        O773   1.268       .  A
C335       C1315   1.451   1_455  S
O337        C347   1.279       .  A
O337       Cu345   2.030       .  S
O338        C348   1.270       .  A
O338       Cu345   1.984       .  S
O339        C349   1.282       .  A
O339       Cu345   2.013       .  S
O340        C350   1.281       .  A
O340       Cu345   2.035       .  S
O341        C350   1.270       .  A
O341       Cu346   1.958       .  S
O342        C349   1.268       .  A
O342       Cu346   1.957       .  S
O343        C348   1.284       .  A
O343       Cu346   2.034       .  S
O344        C347   1.283       .  A
O344       Cu346   2.056       .  S
Cu345      Cu346   2.377       .  S
C348        C377   1.455       .  S
C349        C405   1.451       .  S
C350        C361   1.454       .  S
O351        C361   1.284       .  A
O351       Cu359   2.034       .  S
O352        C362   1.283       .  A
O352       Cu359   2.056       .  S
O353        C363   1.270       .  A
O353       Cu359   1.958       .  S
O354        C364   1.268       .  A
O354       Cu359   1.957       .  S
O355        C364   1.282       .  A
O355       Cu360   2.013       .  S
O356        C363   1.281       .  A
O356       Cu360   2.034       .  S
O357        C362   1.279       .  A
O357       Cu360   2.030       .  S
O358        C361   1.270       .  A
O358       Cu360   1.984       .  S
Cu359      Cu360   2.377       .  S
C363        C390   1.454       .  S
O365        C375   1.284       .  A
O365       Cu373   2.034       .  S
O366        C376   1.283       .  A
O366       Cu373   2.056       .  S
O367        C377   1.270       .  A
O367       Cu373   1.958       .  S
O368        C378   1.268       .  A
O368       Cu373   1.957       .  S
O369        C826   1.282       .  A
O369       Cu822   2.014       .  S
O370        C377   1.281       .  A
O370       Cu374   2.035       .  S
O371        C376   1.279       .  A
O371       Cu374   2.031       .  S
O372        C375   1.270       .  A
O372       Cu374   1.984       .  S
Cu373      Cu374   2.377       .  S
Cu374       O817   2.014       .  S
C375        C392   1.455       .  S
C378        O817   1.282       .  A
O379        C389   1.279       .  A
O379       Cu387   2.030       .  S
O380        C390   1.270       .  A
O380       Cu387   1.984       .  S
O381        C391   1.282       .  A
O381       Cu387   2.014       .  S
O382        C392   1.281       .  A
O382       Cu387   2.035       .  S
O383        C392   1.270       .  A
O383       Cu388   1.959       .  S
O384        C391   1.268       .  A
O384       Cu388   1.957       .  S
O385        C390   1.284       .  A
O385       Cu388   2.033       .  S
O386        C389   1.283       .  A
O386       Cu388   2.056       .  S
Cu387      Cu388   2.377       .  S
C391        C447   1.451       .  S
O393        C403   1.283       .  A
O393       Cu401   2.056       .  S
O394        C404   1.284       .  A
O394       Cu401   2.034       .  S
O395        C405   1.268       .  A
O395       Cu401   1.957       .  S
O396        C406   1.270       .  A
O396       Cu401   1.958       .  S
O397        C406   1.281       .  A
O397       Cu402   2.035       .  S
O398        C405   1.282       .  A
O398       Cu402   2.014       .  S
O399        C404   1.270       .  A
O399       Cu402   1.984       .  S
O400        C403   1.279       .  A
O400       Cu402   2.031       .  S
Cu401      Cu402   2.377       .  S
C404        C432   1.455       .  S
C406       C1314   1.454       .  S
O407        C417   1.279   1_554  A
O407       Cu415   2.030       .  S
O408        C418   1.270       .  A
O408       Cu415   1.984       .  S
O409        C867   1.282   1_554  A
O409       Cu863   2.013       .  S
O410        C420   1.281       .  A
O410       Cu415   2.035       .  S
O411        C420   1.270       .  A
O411       Cu416   1.958       .  S
O412        C419   1.268       .  A
O412       Cu416   1.957   1_556  S
O413        C418   1.284       .  A
O413       Cu416   2.034       .  S
O414        C417   1.283       .  A
O414       Cu416   2.056   1_556  S
Cu415       O857   2.013       .  S
Cu415      Cu416   2.377       .  S
C418       C1302   1.454       .  S
C419        O857   1.282   1_556  A
C419       C1231   1.451       .  S
C420        C446   1.454       .  S
O421        C431   1.268       .  A
O421       Cu429   1.957   1_556  S
O422        C432   1.270       .  A
O422       Cu429   1.958       .  S
O423        C433   1.283       .  A
O423       Cu429   2.056   1_556  S
O424        C434   1.284       .  A
O424      Cu1325   2.034       .  S
O425       C1330   1.270   1_455  A
O425       Cu430   1.984       .  S
O426        C433   1.279   1_554  A
O426       Cu430   2.031       .  S
O427        C432   1.281       .  A
O427       Cu430   2.035       .  S
O428        C431   1.282   1_554  A
O428       Cu430   2.014       .  S
Cu429      O1320   2.034   1_455  S
Cu429      Cu430   2.377       .  S
C431       C1203   1.451   1_455  S
C434       O1321   1.270       .  A
C434        C448   1.455       .  S
O435        C445   1.283       .  A
O435       Cu443   2.056       .  S
O436        C446   1.284       .  A
O436       Cu443   2.033       .  S
O437        C447   1.268       .  A
O437       Cu443   1.957       .  S
O438        C448   1.270       .  A
O438       Cu443   1.959       .  S
O439        C448   1.281       .  A
O439       Cu444   2.035       .  S
O440        C447   1.282       .  A
O440       Cu444   2.014       .  S
O441        C446   1.270       .  A
O441       Cu444   1.983       .  S
O442        C445   1.279       .  A
O442       Cu444   2.030       .  S
Cu443      Cu444   2.377       .  S
O449        C459   1.284       .  A
O449      Cu1353   2.034       .  S
O450        C460   1.283       .  A
O450       Cu457   2.056       .  S
O451        C461   1.270       .  A
O451       Cu457   1.958       .  S
O452        C462   1.268       .  A
O452       Cu457   1.957       .  S
O454        C461   1.281       .  A
O454       Cu458   2.035       .  S
O455        C460   1.279       .  A
O455       Cu458   2.031       .  S
O456       C1355   1.270   1_455  A
O456       Cu458   1.984       .  S
Cu457      O1345   2.034   1_455  S
Cu457      Cu458   2.377       .  S
C459       O1352   1.270       .  A
C459        C476   1.455       .  S
C460        C824   1.488       .  S
C461        C488   1.454       .  S
C462       C1565   1.451   1_455  S
O463        C473   1.279       .  A
O463       Cu471   2.030       .  S
O464        C474   1.270       .  A
O464       Cu471   1.984       .  S
O465        C475   1.282       .  A
O465       Cu471   2.014       .  S
O466        C476   1.281       .  A
O466       Cu471   2.035       .  S
O467        C476   1.270       .  A
O467       Cu472   1.959       .  S
O468        C475   1.268       .  A
O468       Cu472   1.957       .  S
O469        C474   1.284       .  A
O469       Cu472   2.034       .  S
O470        C473   1.283       .  A
O470       Cu472   2.056       .  S
Cu471      Cu472   2.377       .  S
C473        C768   1.488       .  S
C474        C503   1.455       .  S
C475        C515   1.451       .  S
O477        C487   1.279       .  A
O477       Cu485   2.030       .  S
O478        C488   1.270       .  A
O478       Cu485   1.984       .  S
O479        C489   1.282       .  A
O479       Cu485   2.013       .  S
O480        C490   1.281       .  A
O480       Cu485   2.035       .  S
O481        C490   1.270       .  A
O481       Cu486   1.958       .  S
O482        C489   1.268       .  A
O482       Cu486   1.957       .  S
O483        C488   1.284       .  A
O483       Cu486   2.034       .  S
O484        C487   1.283       .  A
O484       Cu486   2.056       .  S
Cu485      Cu486   2.377       .  S
C487        C740   1.488       .  S
C489        C545   1.451       .  S
C490       C1397   1.454       .  S
O491        C501   1.284       .  A
O491       Cu499   2.033       .  S
O492        C502   1.283       .  A
O492       Cu499   2.056       .  S
O493        C503   1.270       .  A
O493       Cu499   1.959       .  S
O494        C504   1.268       .  A
O494       Cu499   1.957       .  S
O495        C504   1.282       .  A
O495       Cu500   2.014       .  S
O496        C503   1.281       .  A
O496       Cu500   2.035       .  S
O497        C502   1.279       .  A
O497       Cu500   2.030       .  S
O498        C501   1.270       .  A
O498       Cu500   1.983       .  S
Cu499      Cu500   2.377       .  S
C501       C1386   1.454       .  S
C502        C810   1.488       .  S
C504       C1538   1.451       .  S
O505        C515   1.282       .  A
O505       Cu513   2.014       .  S
O506        C516   1.281       .  A
O506       Cu513   2.035       .  S
O507        C517   1.279       .  A
O507       Cu513   2.030       .  S
O508        C518   1.270       .  A
O508       Cu513   1.984       .  S
O509        C518   1.284       .  A
O509       Cu514   2.034       .  S
O510        C517   1.283       .  A
O510       Cu514   2.056       .  S
O511        C516   1.270       .  A
O511       Cu514   1.959       .  S
O512        C515   1.268       .  A
O512       Cu514   1.957       .  S
Cu513      Cu514   2.377       .  S
C516        C531   1.455       .  S
C517        C683   1.488       .  S
C518        C559   1.455       .  S
O519        C529   1.270       .  A
O519       Cu527   1.958       .  S
O520        C530   1.268       .  A
O520       Cu527   1.957       .  S
O521        C531   1.284       .  A
O521       Cu527   2.034       .  S
O522        C532   1.283       .  A
O522       Cu527   2.056       .  S
O523        C532   1.279       .  A
O523       Cu528   2.031       .  S
O524        C531   1.270       .  A
O524       Cu528   1.984       .  S
O525        C530   1.282       .  A
O525       Cu528   2.014       .  S
O526        C529   1.281       .  A
O526       Cu528   2.035       .  S
Cu527      Cu528   2.377       .  S
C529        C544   1.454       .  S
C530        C572   1.451       .  S
C532        C881   1.488       .  S
O533        C543   1.283       .  A
O533       Cu541   2.056       .  S
O534        C544   1.284       .  A
O534       Cu541   2.033       .  S
O535        C545   1.268       .  A
O535       Cu541   1.957       .  S
O536        C546   1.270       .  A
O536       Cu541   1.958       .  S
O537        C546   1.281       .  A
O537       Cu542   2.035       .  S
O538        C545   1.282       .  A
O538       Cu542   2.013       .  S
O539        C544   1.270       .  A
O539       Cu542   1.984       .  S
O540        C543   1.279       .  A
O540       Cu542   2.030       .  S
Cu541      Cu542   2.377       .  S
C543        C714   1.488       .  S
C546        C557   1.454       .  S
O547        C557   1.270       .  A
O547       Cu555   1.984       .  S
O548        C558   1.279       .  A
O548       Cu555   2.030       .  S
O549        C559   1.281       .  A
O549       Cu555   2.035       .  S
O551        C560   1.268       .  A
O551       Cu556   1.957       .  S
O552        C559   1.270       .  A
O552       Cu556   1.959       .  S
O553        C558   1.283       .  A
O553       Cu556   2.056       .  S
O554        C557   1.284       .  A
O554       Cu556   2.034       .  S
Cu555      Cu556   2.377       .  S
C558        C865   1.488       .  S
C560        C616   1.451       .  S
O561        C571   1.281       .  A
O561       Cu569   2.035       .  S
O562        C572   1.282   1_554  A
O562       Cu569   2.014       .  S
O563        C573   1.270       .  A
O563       Cu569   1.984       .  S
O564        C574   1.279   1_554  A
O564       Cu569   2.030       .  S
O565        C574   1.283       .  A
O565       Cu570   2.056   1_556  S
O566        C573   1.284       .  A
O566       Cu570   2.034       .  S
O567        C572   1.268       .  A
O567       Cu570   1.957   1_556  S
O568        C571   1.270       .  A
O568       Cu570   1.958       .  S
Cu569      Cu570   2.377       .  S
C571        C600   1.454       .  S
C573        C585   1.455       .  S
C574        C753   1.488       .  S
O575        C585   1.270       .  A
O575       Cu583   1.958       .  S
O576        C586   1.268       .  A
O576       Cu583   1.957       .  S
O577        C587   1.284       .  A
O577       Cu583   2.034       .  S
O578        C588   1.283       .  A
O578       Cu583   2.056       .  S
O579        C588   1.279       .  A
O579       Cu584   2.030       .  S
O580        C587   1.270       .  A
O580       Cu584   1.984       .  S
O581        C586   1.282       .  A
O581       Cu584   2.014       .  S
O582        C585   1.281       .  A
O582       Cu584   2.035       .  S
Cu583      Cu584   2.377       .  S
C586        C656   1.451       .  S
C587        C615   1.455       .  S
C588        C795   1.488       .  S
O589        C599   1.279       .  A
O590        C600   1.270       .  A
O590       Cu597   1.984       .  S
O591        C601   1.282       .  A
O591       Cu597   2.013       .  S
O592        C602   1.281       .  A
O592       Cu597   2.035       .  S
O593        C602   1.270       .  A
O593       Cu598   1.958       .  S
O594        C601   1.268       .  A
O594       Cu598   1.957       .  S
O595        C600   1.284       .  A
O595       Cu598   2.033       .  S
O596       Cu598   2.056       .  S
Cu597      Cu598   2.377       .  S
C599        C837   1.488       .  S
C601        C630   1.451       .  S
C602        C613   1.454       .  S
O603        C613   1.284       .  A
O603       Cu611   2.033       .  S
O604        C614   1.283       .  A
O604       Cu611   2.056   1_556  S
O605        C615   1.270       .  A
O605       Cu611   1.959       .  S
O606       Cu611   1.957   1_556  S
O607        C616   1.282   1_554  A
O607       Cu612   2.014   1_565  S
O608        C615   1.281       .  A
O609       Cu612   2.030       .  S
O610       Cu612   1.984       .  S
C614        C781   1.488       .  S
O617        C627   1.284       .  A
O617       Cu625   2.034       .  S
O618        C628   1.283       .  A
O618       Cu625   2.056       .  S
O619        C629   1.270       .  A
O619       Cu625   1.958       .  S
O620        C630   1.268       .  A
O620       Cu625   1.957       .  S
O621        C630   1.282       .  A
O621       Cu626   2.013       .  S
O622        C629   1.281       .  A
O622       Cu626   2.035       .  S
O623        C628   1.279       .  A
O623       Cu626   2.030       .  S
O624        C627   1.270       .  A
O624       Cu626   1.984       .  S
Cu625      Cu626   2.377       .  S
C627        C670   1.454       .  S
C628        C893   1.488       .  S
C629        C643   1.454       .  S
O631        C641   1.270       .  A
O631       Cu639   1.959       .  S
O632        C642   1.268       .  A
O632       Cu639   1.957       .  S
O633        C643   1.284       .  A
O633      Cu1535   2.033       .  S
O634        C644   1.283       .  A
O634       Cu639   2.056       .  S
O635        C644   1.279       .  A
O635       Cu640   2.030       .  S
O636       C1539   1.270   1_455  A
O636       Cu640   1.984       .  S
O637        C642   1.282       .  A
O637       Cu640   2.014       .  S
O638        C641   1.281       .  A
O638       Cu640   2.035       .  S
Cu639      O1529   2.033   1_455  S
Cu639      Cu640   2.377       .  S
C641        C657   1.455       .  S
C642       C1400   1.451   1_455  S
C643       O1532   1.270       .  A
C644        C697   1.488       .  S
O645        C655   1.281       .  A
O645       Cu653   2.035       .  S
O646        C656   1.282       .  A
O646       Cu653   2.014       .  S
O647        C657   1.270       .  A
O647       Cu653   1.984       .  S
O648        C658   1.279       .  A
O649       Cu654   2.056       .  S
O650        C657   1.284       .  A
O650       Cu654   2.034       .  S
O651        C656   1.268       .  A
O651       Cu654   1.957       .  S
O652        C655   1.270       .  A
O652       Cu654   1.959       .  S
Cu653      Cu654   2.377       .  S
C655       C1568   1.455       .  S
C658        C851   1.488       .  S
O659       Cu667   1.957       .  S
O660        C670   1.270       .  A
O660       Cu667   1.958       .  S
O661        C671   1.283       .  A
O661       Cu667   2.056       .  S
O662        C672   1.284       .  A
O662       Cu667   2.034       .  S
O663       Cu668   1.984       .  S
O664       Cu668   2.031       .  S
O665        C670   1.281       .  A
O666        C669   1.282       .  A
O666       Cu668   2.014   1_565  S
C669       C1358   1.451       .  S
C671        C725   1.488       .  S
C672       C1551   1.455       .  S
O673        C683   1.283       .  A
O673       Cu681   2.056       .  S
O674        C684   1.284       .  A
O674       Cu681   2.034       .  S
O675        C685   1.268       .  A
O675       Cu681   1.957       .  S
O676        C686   1.270       .  A
O676       Cu681   1.958       .  S
O677        C686   1.281       .  A
O677       Cu682   2.035       .  S
O678        C685   1.282       .  A
O678       Cu682   2.013       .  S
O679        C684   1.270       .  A
O679       Cu682   1.984       .  S
O680        C683   1.279       .  A
O680       Cu682   2.030       .  S
Cu681      Cu682   2.377       .  S
C684        C728   1.455       .  S
C685        C770   1.451       .  S
C686        C698   1.454       .  S
O687        C697   1.279       .  A
O687       Cu695   2.030       .  S
O688        C698   1.270       .  A
O688       Cu695   1.984       .  S
O689        C699   1.282       .  A
O689       Cu695   2.013       .  S
O690        C700   1.281       .  A
O690       Cu695   2.035       .  S
O691        C700   1.270       .  A
O691       Cu696   1.958       .  S
O692        C699   1.268       .  A
O692       Cu696   1.957       .  S
O693        C698   1.284       .  A
O693       Cu696   2.033       .  S
O694        C697   1.283       .  A
O694       Cu696   2.056       .  S
Cu695      Cu696   2.377       .  S
C699        C812   1.451       .  S
C700        C713   1.454       .  S
O701        C711   1.281       .  A
O701       Cu709   2.035       .  S
O702        C712   1.282       .  A
O702       Cu709   2.014       .  S
O703        C713   1.270       .  A
O703       Cu709   1.984       .  S
O704        C714   1.279       .  A
O705       Cu710   2.056       .  S
O706        C713   1.284       .  A
O706       Cu710   2.033       .  S
O707        C712   1.268       .  A
O707       Cu710   1.957       .  S
O708        C711   1.270       .  A
O708       Cu710   1.959       .  S
Cu709      Cu710   2.377       .  S
C711        C726   1.455       .  S
C712        C742   1.451       .  S
O715       Cu723   2.031       .  S
O716       Cu723   1.984       .  S
O717        C727   1.282       .  A
O717       Cu723   2.014   1_565  S
O718        C728   1.281       .  A
O719        C728   1.270       .  A
O719       Cu724   1.958       .  S
O720       Cu724   1.957       .  S
O721        C726   1.284       .  A
O721       Cu724   2.034       .  S
O722        C725   1.283       .  A
O722       Cu724   2.056       .  S
C727        C826   1.451       .  S
O729        C739   1.270       .  A
O729       Cu737   1.984       .  S
O730        C740   1.279       .  A
O730       Cu737   2.030       .  S
O731        C741   1.281       .  A
O731       Cu737   2.035       .  S
O732        C742   1.282       .  A
O732       Cu737   2.014       .  S
O733        C742   1.268       .  A
O733       Cu738   1.957       .  S
O734        C741   1.270       .  A
O734       Cu738   1.959       .  S
O735        C740   1.283       .  A
O735       Cu738   2.056       .  S
O736        C739   1.284       .  A
O736       Cu738   2.034       .  S
Cu737      Cu738   2.377       .  S
C739        C784   1.454       .  S
C741       C1650   1.455       .  S
O743        C753   1.283       .  A
O743       Cu751   2.056       .  S
O744        C754   1.284       .  A
O744       Cu751   2.034       .  S
O745        C755   1.268       .  A
O745       Cu751   1.957       .  S
O746        C756   1.270       .  A
O746       Cu751   1.958       .  S
O747        C756   1.281       .  A
O747       Cu752   2.035       .  S
O748        C755   1.282       .  A
O748       Cu752   2.014       .  S
O749        C754   1.270       .  A
O749       Cu752   1.984       .  S
O750        C753   1.279       .  A
O750       Cu752   2.030       .  S
Cu751      Cu752   2.377       .  S
C754       C1637   1.455       .  S
C755       C1775   1.451       .  S
C756        C767   1.455       .  S
O757        C767   1.270       .  A
O757       Cu765   1.984       .  S
O758        C768   1.279       .  A
O759        C769   1.281       .  A
O759       Cu765   2.035       .  S
O760        C770   1.282       .  A
O760       Cu765   2.014       .  S
O761        C770   1.268       .  A
O761       Cu766   1.957       .  S
O762        C769   1.270       .  A
O762       Cu766   1.958       .  S
O763       Cu766   2.056       .  S
O764        C767   1.284       .  A
O764       Cu766   2.034       .  S
Cu765      Cu766   2.377       .  S
C769        C782   1.454       .  S
O771        C781   1.283       .  A
O771       Cu779   2.056       .  S
O772       C1678   1.284       .  A
O772       Cu779   2.033   1_655  S
O773       Cu779   1.957       .  S
O774        C784   1.270       .  A
O774       Cu779   1.958       .  S
O775        C784   1.281       .  A
O776        C783   1.282       .  A
O776       Cu780   2.013   1_565  S
O777       C1230   1.270   1_455  A
O777       Cu780   1.984       .  S
O778       Cu780   2.030       .  S
C782       O1668   1.284       .  A
C782       O1225   1.270       .  A
C783       C1763   1.451   1_455  S
O785        C795   1.279       .  A
O785       Cu793   2.030       .  S
O786        C796   1.270       .  A
O786       Cu793   1.984       .  S
O787        C797   1.282       .  A
O787       Cu793   2.013       .  S
O788        C798   1.281       .  A
O788       Cu793   2.035       .  S
O789        C798   1.270       .  A
O789       Cu794   1.958       .  S
O790        C797   1.268       .  A
O790       Cu794   1.957       .  S
O791        C796   1.284       .  A
O791       Cu794   2.034       .  S
O792        C795   1.283       .  A
O792       Cu794   2.056       .  S
Cu793      Cu794   2.377       .  S
C796        C825   1.455       .  S
C797        C853   1.451       .  S
C798        C809   1.454       .  S
O799        C809   1.284       .  A
O799       Cu807   2.034       .  S
O800        C810   1.283       .  A
O800       Cu807   2.056       .  S
O801        C811   1.270       .  A
O801       Cu807   1.958       .  S
O802        C812   1.268       .  A
O802       Cu807   1.957       .  S
O803        C812   1.282       .  A
O803       Cu808   2.013       .  S
O804        C811   1.281       .  A
O804       Cu808   2.034       .  S
O805        C810   1.279       .  A
O805       Cu808   2.030       .  S
O806        C809   1.270       .  A
O806       Cu808   1.984       .  S
Cu807      Cu808   2.377       .  S
C811        C838   1.454       .  S
O813        C823   1.284       .  A
O813       Cu821   2.034       .  S
O814        C824   1.283       .  A
O814       Cu821   2.056       .  S
O815        C825   1.270       .  A
O815       Cu821   1.958       .  S
O816        C826   1.268       .  A
O816       Cu821   1.957       .  S
O818        C825   1.281       .  A
O818       Cu822   2.035       .  S
O819        C824   1.279       .  A
O819       Cu822   2.031       .  S
O820        C823   1.270       .  A
O820       Cu822   1.984       .  S
Cu821      Cu822   2.377       .  S
C823        C840   1.455       .  S
O827        C837   1.279       .  A
O827       Cu835   2.030       .  S
O828        C838   1.270       .  A
O828       Cu835   1.984       .  S
O829        C839   1.282       .  A
O829       Cu835   2.014       .  S
O830        C840   1.281       .  A
O830       Cu835   2.035       .  S
O831        C840   1.270       .  A
O831       Cu836   1.959       .  S
O832        C839   1.268       .  A
O832       Cu836   1.957       .  S
O833        C838   1.284       .  A
O833       Cu836   2.033       .  S
O834        C837   1.283       .  A
O834       Cu836   2.056       .  S
Cu835      Cu836   2.377       .  S
C839        C895   1.451       .  S
O841        C851   1.283       .  A
O841       Cu849   2.056       .  S
O842        C852   1.284       .  A
O842       Cu849   2.034       .  S
O843        C853   1.268       .  A
O843       Cu849   1.957       .  S
O844        C854   1.270       .  A
O844       Cu849   1.958       .  S
O845        C854   1.281       .  A
O845       Cu850   2.035       .  S
O846        C853   1.282       .  A
O846       Cu850   2.014       .  S
O847        C852   1.270       .  A
O847       Cu850   1.984       .  S
O848        C851   1.279       .  A
O848       Cu850   2.031       .  S
Cu849      Cu850   2.377       .  S
C852        C880   1.455       .  S
C854       C1762   1.454       .  S
O855        C865   1.279   1_554  A
O855       Cu863   2.030       .  S
O856        C866   1.270       .  A
O856       Cu863   1.984       .  S
O858        C868   1.281       .  A
O858       Cu863   2.035       .  S
O859        C868   1.270       .  A
O859       Cu864   1.958       .  S
O860        C867   1.268       .  A
O860       Cu864   1.957   1_556  S
O861        C866   1.284       .  A
O861       Cu864   2.034       .  S
O862        C865   1.283       .  A
O862       Cu864   2.056   1_556  S
Cu863      Cu864   2.377       .  S
C866       C1750   1.454       .  S
C867       C1679   1.451       .  S
C868        C894   1.454       .  S
O869        C879   1.268       .  A
O869       Cu877   1.957   1_556  S
O870        C880   1.270       .  A
O870       Cu877   1.958       .  S
O871        C881   1.283       .  A
O871       Cu877   2.056   1_556  S
O872        C882   1.284       .  A
O872      Cu1773   2.034       .  S
O873       C1778   1.270   1_455  A
O873       Cu878   1.984       .  S
O874        C881   1.279   1_554  A
O874       Cu878   2.031       .  S
O875        C880   1.281       .  A
O875       Cu878   2.035       .  S
O876        C879   1.282   1_554  A
O876       Cu878   2.014       .  S
Cu877      O1768   2.034   1_455  S
Cu877      Cu878   2.377       .  S
C879       C1651   1.451   1_455  S
C882       O1769   1.270       .  A
C882        C896   1.455       .  S
O883        C893   1.283       .  A
O883       Cu891   2.056       .  S
O884        C894   1.284       .  A
O884       Cu891   2.033       .  S
O885        C895   1.268       .  A
O885       Cu891   1.957       .  S
O886        C896   1.270       .  A
O886       Cu891   1.959       .  S
O887        C896   1.281       .  A
O887       Cu892   2.035       .  S
O888        C895   1.282       .  A
O888       Cu892   2.014       .  S
O889        C894   1.270       .  A
O889       Cu892   1.983       .  S
O890        C893   1.279       .  A
O890       Cu892   2.030       .  S
Cu891      Cu892   2.377       .  S
O897        C907   1.284       .  A
O898        C908   1.283       .  A
O898       Cu905   2.056       .  S
O899        C909   1.270       .  A
O899       Cu905   1.958       .  S
O900        C910   1.268       .  A
O900       Cu905   1.957       .  S
O901       C1358   1.282       .  A
O901      Cu1354   2.014       .  S
O902        C909   1.281       .  A
O902       Cu906   2.035       .  S
O903        C908   1.279       .  A
O903       Cu906   2.031       .  S
O904       Cu906   1.984       .  S
Cu905      Cu906   2.377       .  S
Cu906      O1349   2.014       .  S
C907        C924   1.455       .  S
C908       C1272   1.488       .  S
C909        C936   1.454       .  S
C910       O1349   1.282       .  A
O911        C921   1.279       .  A
O911       Cu919   2.030       .  S
O912        C922   1.270       .  A
O912       Cu919   1.984       .  S
O913        C923   1.282       .  A
O913       Cu919   2.014       .  S
O914        C924   1.281       .  A
O914       Cu919   2.035       .  S
O915        C924   1.270       .  A
O915       Cu920   1.959       .  S
O916        C923   1.268       .  A
O916       Cu920   1.957       .  S
O917        C922   1.284       .  A
O917       Cu920   2.034       .  S
O918        C921   1.283       .  A
O918       Cu920   2.056       .  S
Cu919      Cu920   2.377       .  S
C921       C1216   1.488       .  S
C922        C951   1.455       .  S
C923        C963   1.451       .  S
O925        C935   1.279       .  A
O925       Cu933   2.030       .  S
O926        C936   1.270       .  A
O926       Cu933   1.984       .  S
O927        C937   1.282       .  A
O927       Cu933   2.013       .  S
O928        C938   1.281       .  A
O928       Cu933   2.035       .  S
O929        C938   1.270       .  A
O929       Cu934   1.958       .  S
O930        C937   1.268       .  A
O930       Cu934   1.957       .  S
O931        C936   1.284       .  A
O931       Cu934   2.034       .  S
O932        C935   1.283       .  A
O932       Cu934   2.056       .  S
Cu933      Cu934   2.377       .  S
C935       C1188   1.488       .  S
C937        C993   1.451       .  S
O939        C949   1.284       .  A
O939       Cu947   2.033   1_455  S
O940        C950   1.283       .  A
O940       Cu947   2.056       .  S
O941        C951   1.270       .  A
O941       Cu947   1.959       .  S
O942        C952   1.268       .  A
O942       Cu947   1.957       .  S
O943        C952   1.282       .  A
O943       Cu948   2.014       .  S
O944        C951   1.281       .  A
O944       Cu948   2.035       .  S
O945        C950   1.279       .  A
O945       Cu948   2.030       .  S
O946        C949   1.270   1_655  A
O946       Cu948   1.983       .  S
Cu947      Cu948   2.377       .  S
C950       C1258   1.488       .  S
O953        C963   1.282       .  A
O953       Cu961   2.014       .  S
O954        C964   1.281       .  A
O954       Cu961   2.035       .  S
O955        C965   1.279       .  A
O955       Cu961   2.030       .  S
O956        C966   1.270       .  A
O956       Cu961   1.984       .  S
O957        C966   1.284       .  A
O957       Cu962   2.034       .  S
O958        C965   1.283       .  A
O958       Cu962   2.056       .  S
O959        C964   1.270       .  A
O959       Cu962   1.959       .  S
O960        C963   1.268       .  A
O960       Cu962   1.957       .  S
Cu961      Cu962   2.377       .  S
C964        C979   1.455       .  S
C965       C1131   1.488       .  S
C966       C1007   1.455       .  S
O967        C977   1.270       .  A
O967       Cu975   1.958       .  S
O968        C978   1.268       .  A
O968       Cu975   1.957       .  S
O969        C979   1.284       .  A
O969       Cu975   2.034       .  S
O970        C980   1.283       .  A
O970       Cu975   2.056       .  S
O971        C980   1.279       .  A
O971       Cu976   2.031       .  S
O972        C979   1.270       .  A
O972       Cu976   1.984       .  S
O973        C978   1.282       .  A
O973       Cu976   2.014       .  S
O974        C977   1.281       .  A
O974       Cu976   2.035       .  S
Cu975      Cu976   2.377       .  S
C977        C992   1.454       .  S
C978       C1020   1.451       .  S
C980       C1329   1.488       .  S
O981        C991   1.283       .  A
O981       Cu989   2.056       .  S
O982        C992   1.284       .  A
O982       Cu989   2.033       .  S
O983        C993   1.268       .  A
O983       Cu989   1.957       .  S
O984        C994   1.270       .  A
O984       Cu989   1.958       .  S
O985        C994   1.281       .  A
O985       Cu990   2.035       .  S
O986        C993   1.282       .  A
O986       Cu990   2.013       .  S
O987        C992   1.270       .  A
O987       Cu990   1.984       .  S
O988        C991   1.279       .  A
O988       Cu990   2.030       .  S
Cu989      Cu990   2.377       .  S
C991       C1162   1.488       .  S
C994       C1005   1.454       .  S
O995       C1005   1.270       .  A
O995      Cu1003   1.984       .  S
O996       C1006   1.279       .  A
O996      Cu1003   2.030       .  S
O997       C1007   1.281       .  A
O997      Cu1003   2.035       .  S
O998       C1456   1.282       .  A
O998      Cu1451   2.014       .  S
O999       C1008   1.268       .  A
O999      Cu1004   1.957       .  S
O1000      C1007   1.270       .  A
O1000     Cu1004   1.959       .  S
O1001      C1006   1.283       .  A
O1001     Cu1004   2.056       .  S
O1002      C1005   1.284       .  A
O1002     Cu1004   2.034       .  S
Cu1003     O1446   2.014       .  S
Cu1003    Cu1004   2.377       .  S
C1006      C1313   1.488       .  S
C1008      O1446   1.282       .  A
C1008      C1064   1.451       .  S
O1009      C1019   1.281       .  A
O1009     Cu1017   2.035       .  S
O1010      C1020   1.282   1_554  A
O1010     Cu1017   2.014       .  S
O1011      C1021   1.270       .  A
O1011     Cu1017   1.984       .  S
O1012      C1022   1.279   1_554  A
O1012     Cu1017   2.030       .  S
O1013      C1022   1.283       .  A
O1013     Cu1018   2.056   1_556  S
O1014      C1021   1.284       .  A
O1014     Cu1018   2.034       .  S
O1015      C1020   1.268       .  A
O1015     Cu1018   1.957   1_556  S
O1016      C1019   1.270       .  A
O1016     Cu1018   1.958       .  S
Cu1017    Cu1018   2.377       .  S
C1019      C1048   1.454       .  S
C1021      C1033   1.455       .  S
C1022      C1201   1.488       .  S
O1023      C1033   1.270       .  A
O1023     Cu1031   1.958       .  S
O1024      C1034   1.268       .  A
O1024     Cu1031   1.957       .  S
O1025      C1035   1.284       .  A
O1025     Cu1031   2.034       .  S
O1026      C1036   1.283       .  A
O1026     Cu1031   2.056       .  S
O1027      C1036   1.279       .  A
O1027     Cu1032   2.030       .  S
O1028      C1035   1.270       .  A
O1028     Cu1032   1.984       .  S
O1029      C1034   1.282       .  A
O1029     Cu1032   2.014       .  S
O1030      C1033   1.281       .  A
O1030     Cu1032   2.035       .  S
Cu1031    Cu1032   2.377       .  S
C1034      C1104   1.451       .  S
C1035      C1063   1.455       .  S
C1036      C1243   1.488       .  S
O1037      C1047   1.279       .  A
O1037     Cu1493   2.030       .  S
O1038      C1048   1.270       .  A
O1038     Cu1045   1.984       .  S
O1039      C1049   1.282       .  A
O1039     Cu1045   2.013       .  S
O1040      C1050   1.281       .  A
O1040     Cu1045   2.035       .  S
O1041      C1050   1.270       .  A
O1041     Cu1046   1.958       .  S
O1042      C1049   1.268       .  A
O1042     Cu1046   1.957       .  S
O1043      C1048   1.284       .  A
O1043     Cu1046   2.033       .  S
O1044      C1495   1.283   1_545  A
O1044     Cu1046   2.056       .  S
Cu1045     O1485   2.030   1_545  S
Cu1045    Cu1046   2.377       .  S
C1047      O1492   1.283       .  A
C1047      C1285   1.488       .  S
C1049      C1078   1.451       .  S
C1050      C1061   1.454       .  S
O1051      C1061   1.284       .  A
O1051     Cu1059   2.033       .  S
O1052      C1062   1.283       .  A
O1052     Cu1059   2.056   1_556  S
O1053      C1063   1.270       .  A
O1053     Cu1059   1.959       .  S
O1054      C1512   1.268   1_545  A
O1054     Cu1059   1.957   1_556  S
O1055      C1064   1.282   1_554  A
O1055     Cu1060   2.014       .  S
O1056      C1063   1.281       .  A
O1056     Cu1508   2.035       .  S
O1057      C1510   1.279   1_554  A
O1057     Cu1060   2.030       .  S
O1058      C1509   1.270       .  A
O1058     Cu1060   1.984       .  S
Cu1059    Cu1508   2.377       .  S
Cu1060     O1504   2.035       .  S
Cu1060    Cu1507   2.377       .  S
C1061      O1506   1.270       .  A
C1062      O1505   1.279   1_556  A
C1062      C1229   1.488       .  S
C1064      O1502   1.268       .  A
O1065      C1075   1.284       .  A
O1065     Cu1073   2.034       .  S
O1066      C1076   1.283       .  A
O1066     Cu1073   2.056       .  S
O1067      C1077   1.270       .  A
O1067     Cu1073   1.958       .  S
O1068      C1078   1.268       .  A
O1068     Cu1073   1.957       .  S
O1069      C1078   1.282       .  A
O1069     Cu1074   2.013       .  S
O1070      C1077   1.281       .  A
O1070     Cu1074   2.035       .  S
O1071      C1076   1.279       .  A
O1071     Cu1074   2.030       .  S
O1072      C1075   1.270       .  A
O1072     Cu1074   1.984       .  S
Cu1073    Cu1074   2.377       .  S
C1075      C1118   1.454       .  S
C1076      C1341   1.488       .  S
C1077      C1091   1.454       .  S
O1079      C1089   1.270       .  A
O1079     Cu1087   1.959       .  S
O1080      C1090   1.268       .  A
O1080     Cu1087   1.957       .  S
O1081      C1091   1.284       .  A
O1082      C1092   1.283       .  A
O1082     Cu1087   2.056       .  S
O1083      C1092   1.279       .  A
O1083     Cu1088   2.030       .  S
O1084     Cu1088   1.984       .  S
O1085      C1090   1.282       .  A
O1085     Cu1088   2.014       .  S
O1086      C1089   1.281       .  A
O1086     Cu1088   2.035       .  S
Cu1087    Cu1088   2.377       .  S
C1089      C1105   1.455       .  S
C1092      C1145   1.488       .  S
O1093      C1103   1.281       .  A
O1093     Cu1101   2.035       .  S
O1094      C1104   1.282       .  A
O1094     Cu1101   2.014       .  S
O1095      C1105   1.270       .  A
O1095     Cu1101   1.984       .  S
O1096      C1106   1.279       .  A
O1096     Cu1549   2.031       .  S
O1097      C1554   1.283   1_545  A
O1097     Cu1102   2.056       .  S
O1098      C1105   1.284       .  A
O1098     Cu1102   2.034       .  S
O1099      C1104   1.268       .  A
O1099     Cu1102   1.957       .  S
O1100      C1103   1.270       .  A
O1100     Cu1102   1.959       .  S
Cu1101     O1544   2.031   1_545  S
Cu1101    Cu1102   2.377       .  S
C1106      O1545   1.283       .  A
C1106      C1299   1.488       .  S
O1107      C1565   1.268   1_545  A
O1107     Cu1115   1.957       .  S
O1108      C1118   1.270       .  A
O1108     Cu1115   1.958       .  S
O1109      C1119   1.283       .  A
O1109     Cu1115   2.056       .  S
O1110      C1120   1.284       .  A
O1110     Cu1115   2.034   1_455  S
O1111      C1568   1.270   1_655  A
O1111     Cu1116   1.984       .  S
O1112      C1567   1.279       .  A
O1112     Cu1116   2.031       .  S
O1113      C1118   1.281       .  A
O1113     Cu1564   2.035       .  S
O1114      C1117   1.282       .  A
O1114     Cu1116   2.014       .  S
Cu1115    Cu1564   2.377       .  S
Cu1116     O1561   2.035       .  S
Cu1116    Cu1563   2.377       .  S
C1117      O1555   1.268       .  A
C1119      O1560   1.279       .  A
C1119      C1173   1.488       .  S
C1120      O1559   1.270   1_455  A
O1121      C1131   1.283       .  A
O1121     Cu1129   2.056       .  S
O1122      C1132   1.284       .  A
O1122     Cu1129   2.034       .  S
O1123      C1133   1.268       .  A
O1123     Cu1129   1.957       .  S
O1124      C1134   1.270       .  A
O1124     Cu1129   1.958       .  S
O1125      C1134   1.281       .  A
O1125     Cu1130   2.035       .  S
O1126      C1133   1.282       .  A
O1126     Cu1130   2.013       .  S
O1127      C1132   1.270       .  A
O1127     Cu1130   1.984       .  S
O1128      C1131   1.279       .  A
O1128     Cu1130   2.030       .  S
Cu1129    Cu1130   2.377       .  S
C1132      C1176   1.455       .  S
C1133      C1218   1.451       .  S
C1134      C1146   1.454       .  S
O1135      C1145   1.279       .  A
O1135     Cu1143   2.030       .  S
O1136      C1146   1.270       .  A
O1136     Cu1143   1.984       .  S
O1137      C1147   1.282       .  A
O1137     Cu1143   2.013       .  S
O1138      C1148   1.281       .  A
O1138     Cu1143   2.035       .  S
O1139      C1148   1.270       .  A
O1139     Cu1144   1.958       .  S
O1140      C1147   1.268       .  A
O1140     Cu1144   1.957       .  S
O1141      C1146   1.284       .  A
O1141     Cu1144   2.033       .  S
O1142      C1145   1.283       .  A
O1142     Cu1144   2.056       .  S
Cu1143    Cu1144   2.377       .  S
C1147      C1260   1.451       .  S
C1148      C1161   1.454       .  S
O1149      C1159   1.281       .  A
O1149     Cu1157   2.035       .  S
O1150      C1160   1.282       .  A
O1150     Cu1157   2.014       .  S
O1151      C1161   1.270       .  A
O1151     Cu1157   1.984       .  S
O1152      C1162   1.279       .  A
O1152     Cu1605   2.030       .  S
O1153      C1610   1.283   1_545  A
O1153     Cu1158   2.056       .  S
O1154      C1161   1.284       .  A
O1154     Cu1158   2.033       .  S
O1155      C1160   1.268       .  A
O1155     Cu1158   1.957       .  S
O1156      C1159   1.270       .  A
O1156     Cu1158   1.959       .  S
Cu1157     O1600   2.030   1_545  S
Cu1157    Cu1158   2.377       .  S
C1159      C1174   1.455       .  S
C1160      C1190   1.451       .  S
C1162      O1601   1.283       .  A
O1163      C1621   1.279       .  A
O1163     Cu1171   2.031       .  S
O1164      C1622   1.270       .  A
O1164     Cu1171   1.984       .  S
O1165      C1175   1.282       .  A
O1165     Cu1171   2.014       .  S
O1166      C1176   1.281       .  A
O1166     Cu1619   2.035       .  S
O1167      C1176   1.270       .  A
O1167     Cu1172   1.958       .  S
O1168      C1623   1.268   1_545  A
O1168     Cu1172   1.957       .  S
O1169      C1174   1.284       .  A
O1169     Cu1172   2.034       .  S
O1170      C1173   1.283       .  A
O1170     Cu1172   2.056       .  S
Cu1171     O1614   2.035       .  S
Cu1171    Cu1620   2.377       .  S
Cu1172    Cu1619   2.377       .  S
C1173      O1611   1.279       .  A
C1174      O1612   1.270       .  A
C1175      O1616   1.268       .  A
C1175      C1274   1.451       .  S
O1177      C1187   1.270       .  A
O1177     Cu1185   1.984       .  S
O1178      C1188   1.279       .  A
O1178     Cu1185   2.030       .  S
O1179      C1189   1.281       .  A
O1179     Cu1185   2.035       .  S
O1180      C1190   1.282       .  A
O1180     Cu1185   2.014       .  S
O1181      C1190   1.268       .  A
O1181     Cu1186   1.957       .  S
O1182      C1189   1.270       .  A
O1182     Cu1186   1.959       .  S
O1183      C1188   1.283       .  A
O1183     Cu1186   2.056       .  S
O1184      C1187   1.284       .  A
O1184     Cu1186   2.034       .  S
Cu1185    Cu1186   2.377       .  S
C1187      C1232   1.454       .  S
O1191      C1201   1.283       .  A
O1191     Cu1199   2.056       .  S
O1192      C1202   1.284       .  A
O1192     Cu1199   2.034   1_455  S
O1193      C1203   1.268       .  A
O1193     Cu1199   1.957       .  S
O1194      C1204   1.270       .  A
O1194     Cu1199   1.958       .  S
O1195      C1204   1.281       .  A
O1195     Cu1200   2.035       .  S
O1196      C1203   1.282       .  A
O1196     Cu1200   2.014       .  S
O1197      C1202   1.270   1_655  A
O1197     Cu1200   1.984       .  S
O1198      C1201   1.279       .  A
O1198     Cu1200   2.030       .  S
Cu1199    Cu1200   2.377       .  S
C1204      C1215   1.455       .  S
O1205      C1215   1.270       .  A
O1205     Cu1213   1.984       .  S
O1206      C1216   1.279       .  A
O1206     Cu1661   2.031       .  S
O1207      C1217   1.281       .  A
O1207     Cu1213   2.035       .  S
O1208      C1218   1.282       .  A
O1208     Cu1213   2.014       .  S
O1209      C1218   1.268       .  A
O1209     Cu1214   1.957       .  S
O1210      C1217   1.270       .  A
O1210     Cu1214   1.958       .  S
O1211      C1664   1.283   1_545  A
O1211     Cu1214   2.056       .  S
O1212      C1215   1.284       .  A
O1212     Cu1214   2.034       .  S
Cu1213     O1654   2.030   1_545  S
Cu1213    Cu1214   2.377       .  S
C1216      O1659   1.283       .  A
C1217      C1230   1.454       .  S
O1219      C1229   1.283       .  A
O1219     Cu1227   2.056       .  S
O1220     Cu1227   2.033       .  S
O1221      C1679   1.268   1_545  A
O1221     Cu1227   1.957       .  S
O1222      C1232   1.270       .  A
O1222     Cu1227   1.958       .  S
O1223      C1232   1.281       .  A
O1223     Cu1676   2.035       .  S
O1224      C1231   1.282       .  A
O1224     Cu1228   2.013       .  S
O1225     Cu1228   1.984       .  S
O1226      C1677   1.279       .  A
O1226     Cu1228   2.030       .  S
Cu1227    Cu1676   2.377       .  S
Cu1228     O1671   2.035       .  S
Cu1228    Cu1675   2.377       .  S
C1229      O1674   1.279       .  A
C1231      O1669   1.268       .  A
O1233      C1243   1.279       .  A
O1233     Cu1241   2.030       .  S
O1234      C1244   1.270       .  A
O1234     Cu1241   1.984       .  S
O1235      C1245   1.282       .  A
O1235     Cu1241   2.013       .  S
O1236      C1246   1.281       .  A
O1236     Cu1241   2.035       .  S
O1237      C1246   1.270       .  A
O1237     Cu1242   1.958       .  S
O1238      C1245   1.268       .  A
O1238     Cu1242   1.957       .  S
O1239      C1244   1.284       .  A
O1239     Cu1242   2.034       .  S
O1240      C1243   1.283       .  A
O1240     Cu1242   2.056       .  S
Cu1241    Cu1242   2.377       .  S
C1244      C1273   1.455       .  S
C1245      C1301   1.451       .  S
C1246      C1257   1.454       .  S
O1247      C1257   1.284       .  A
O1247     Cu1255   2.034       .  S
O1248      C1258   1.283       .  A
O1248     Cu1255   2.056       .  S
O1249      C1259   1.270       .  A
O1249     Cu1255   1.958       .  S
O1250      C1260   1.268       .  A
O1250     Cu1255   1.957       .  S
O1251      C1260   1.282       .  A
O1251     Cu1256   2.013       .  S
O1252      C1259   1.281       .  A
O1252     Cu1256   2.034       .  S
O1253      C1258   1.279       .  A
O1253     Cu1256   2.030       .  S
O1254      C1257   1.270       .  A
O1254     Cu1256   1.984       .  S
Cu1255    Cu1256   2.377       .  S
C1259      C1286   1.454       .  S
O1261      C1271   1.284       .  A
O1261     Cu1269   2.034       .  S
O1262      C1272   1.283       .  A
O1262     Cu1269   2.056       .  S
O1263      C1273   1.270       .  A
O1263     Cu1269   1.958       .  S
O1264      C1274   1.268       .  A
O1264     Cu1269   1.957       .  S
O1265      C1722   1.282       .  A
O1265     Cu1718   2.014       .  S
O1266      C1273   1.281       .  A
O1266     Cu1270   2.035       .  S
O1267      C1272   1.279       .  A
O1267     Cu1270   2.031       .  S
O1268      C1271   1.270       .  A
O1268     Cu1270   1.984       .  S
Cu1269    Cu1270   2.377       .  S
Cu1270     O1713   2.014       .  S
C1271      C1288   1.455       .  S
C1274      O1713   1.282       .  A
O1275      C1285   1.279       .  A
O1275     Cu1283   2.030       .  S
O1276      C1286   1.270       .  A
O1276     Cu1283   1.984       .  S
O1277      C1287   1.282       .  A
O1277     Cu1283   2.014       .  S
O1278      C1288   1.281       .  A
O1278     Cu1283   2.035       .  S
O1279      C1288   1.270       .  A
O1279     Cu1284   1.959       .  S
O1280      C1287   1.268       .  A
O1280     Cu1284   1.957       .  S
O1281      C1286   1.284       .  A
O1281     Cu1284   2.033       .  S
O1282      C1285   1.283       .  A
O1282     Cu1284   2.056       .  S
Cu1283    Cu1284   2.377       .  S
C1287      C1343   1.451       .  S
O1289      C1299   1.283       .  A
O1289     Cu1297   2.056       .  S
O1290      C1300   1.284       .  A
O1290     Cu1297   2.034       .  S
O1291      C1301   1.268       .  A
O1291     Cu1297   1.957       .  S
O1292      C1302   1.270       .  A
O1292     Cu1297   1.958       .  S
O1293      C1302   1.281       .  A
O1293     Cu1298   2.035       .  S
O1294      C1301   1.282       .  A
O1294     Cu1298   2.014       .  S
O1295      C1300   1.270       .  A
O1295     Cu1298   1.984       .  S
O1296      C1299   1.279       .  A
O1296     Cu1298   2.031       .  S
Cu1297    Cu1298   2.377       .  S
C1300      C1328   1.455       .  S
O1303      C1313   1.279   1_554  A
O1303     Cu1311   2.030       .  S
O1304      C1314   1.270   1_655  A
O1304     Cu1311   1.984       .  S
O1305      C1763   1.282   1_554  A
O1305     Cu1759   2.013       .  S
O1306      C1316   1.281       .  A
O1306     Cu1311   2.035       .  S
O1307      C1316   1.270       .  A
O1307     Cu1312   1.958       .  S
O1308      C1315   1.268       .  A
O1308     Cu1312   1.957   1_556  S
O1309      C1314   1.284       .  A
O1309     Cu1312   2.034   1_455  S
O1310      C1313   1.283       .  A
O1310     Cu1312   2.056   1_556  S
Cu1311     O1753   2.013       .  S
Cu1311    Cu1312   2.377       .  S
C1315      O1753   1.282   1_556  A
C1316      C1342   1.454       .  S
O1317      C1327   1.268       .  A
O1317     Cu1325   1.957   1_556  S
O1318      C1328   1.270       .  A
O1318     Cu1325   1.958       .  S
O1319      C1329   1.283       .  A
O1319     Cu1325   2.056   1_556  S
O1320      C1330   1.284       .  A
O1321     Cu1326   1.984       .  S
O1322      C1329   1.279   1_554  A
O1322     Cu1326   2.031       .  S
O1323      C1328   1.281       .  A
O1323     Cu1326   2.035       .  S
O1324      C1327   1.282   1_554  A
O1324     Cu1326   2.014       .  S
Cu1325    Cu1326   2.377       .  S
C1330      C1344   1.455       .  S
O1331      C1341   1.283       .  A
O1331     Cu1339   2.056       .  S
O1332      C1342   1.284       .  A
O1332     Cu1339   2.033       .  S
O1333      C1343   1.268       .  A
O1333     Cu1339   1.957       .  S
O1334      C1344   1.270       .  A
O1334     Cu1339   1.959       .  S
O1335      C1344   1.281       .  A
O1335     Cu1340   2.035       .  S
O1336      C1343   1.282       .  A
O1336     Cu1340   2.014       .  S
O1337      C1342   1.270       .  A
O1337     Cu1340   1.983       .  S
O1338      C1341   1.279       .  A
O1338     Cu1340   2.030       .  S
Cu1339    Cu1340   2.377       .  S
O1345      C1355   1.284       .  A
O1346      C1356   1.283       .  A
O1346     Cu1353   2.056       .  S
O1347      C1357   1.270       .  A
O1347     Cu1353   1.958       .  S
O1348      C1358   1.268       .  A
O1348     Cu1353   1.957       .  S
O1350      C1357   1.281       .  A
O1350     Cu1354   2.035       .  S
O1351      C1356   1.279       .  A
O1351     Cu1354   2.031       .  S
O1352     Cu1354   1.984       .  S
Cu1353    Cu1354   2.377       .  S
C1355      C1372   1.455       .  S
C1356      C1720   1.488       .  S
C1357      C1384   1.454       .  S
O1359      C1369   1.279       .  A
O1359     Cu1367   2.030       .  S
O1360      C1370   1.270       .  A
O1360     Cu1367   1.984       .  S
O1361      C1371   1.282       .  A
O1361     Cu1367   2.014       .  S
O1362      C1372   1.281       .  A
O1362     Cu1367   2.035       .  S
O1363      C1372   1.270       .  A
O1363     Cu1368   1.959       .  S
O1364      C1371   1.268       .  A
O1364     Cu1368   1.957       .  S
O1365      C1370   1.284       .  A
O1365     Cu1368   2.034       .  S
O1366      C1369   1.283       .  A
O1366     Cu1368   2.056       .  S
Cu1367    Cu1368   2.377       .  S
C1369      C1664   1.488       .  S
C1370      C1399   1.455       .  S
C1371      C1411   1.451       .  S
O1373      C1383   1.279       .  A
O1373     Cu1381   2.030       .  S
O1374      C1384   1.270       .  A
O1374     Cu1381   1.984       .  S
O1375      C1385   1.282       .  A
O1375     Cu1381   2.013       .  S
O1376      C1386   1.281       .  A
O1376     Cu1381   2.035       .  S
O1377      C1386   1.270       .  A
O1377     Cu1382   1.958       .  S
O1378      C1385   1.268       .  A
O1378     Cu1382   1.957       .  S
O1379      C1384   1.284       .  A
O1379     Cu1382   2.034       .  S
O1380      C1383   1.283       .  A
O1380     Cu1382   2.056       .  S
Cu1381    Cu1382   2.377       .  S
C1383      C1636   1.488       .  S
C1385      C1441   1.451       .  S
O1387      C1397   1.284       .  A
O1387     Cu1395   2.033   1_455  S
O1388      C1398   1.283       .  A
O1388     Cu1395   2.056       .  S
O1389      C1399   1.270       .  A
O1389     Cu1395   1.959       .  S
O1390      C1400   1.268       .  A
O1390     Cu1395   1.957       .  S
O1391      C1400   1.282       .  A
O1391     Cu1396   2.014       .  S
O1392      C1399   1.281       .  A
O1392     Cu1396   2.035       .  S
O1393      C1398   1.279       .  A
O1393     Cu1396   2.030       .  S
O1394      C1397   1.270   1_655  A
O1394     Cu1396   1.983       .  S
Cu1395    Cu1396   2.377       .  S
C1398      C1706   1.488       .  S
O1401      C1411   1.282       .  A
O1401     Cu1409   2.014       .  S
O1402      C1412   1.281       .  A
O1402     Cu1409   2.035       .  S
O1403      C1413   1.279       .  A
O1403     Cu1409   2.030       .  S
O1404      C1414   1.270       .  A
O1404     Cu1409   1.984       .  S
O1405      C1414   1.284       .  A
O1405     Cu1410   2.034       .  S
O1406      C1413   1.283       .  A
O1406     Cu1410   2.056       .  S
O1407      C1412   1.270       .  A
O1407     Cu1410   1.959       .  S
O1408      C1411   1.268       .  A
O1408     Cu1410   1.957       .  S
Cu1409    Cu1410   2.377       .  S
C1412      C1427   1.455       .  S
C1413      C1579   1.488       .  S
C1414      C1455   1.455       .  S
O1415      C1425   1.270       .  A
O1415     Cu1423   1.958       .  S
O1416      C1426   1.268       .  A
O1416     Cu1423   1.957       .  S
O1417      C1427   1.284       .  A
O1417     Cu1423   2.034       .  S
O1418      C1428   1.283       .  A
O1418     Cu1423   2.056       .  S
O1419      C1428   1.279       .  A
O1419     Cu1424   2.031       .  S
O1420      C1427   1.270       .  A
O1420     Cu1424   1.984       .  S
O1421      C1426   1.282       .  A
O1421     Cu1424   2.014       .  S
O1422      C1425   1.281       .  A
O1422     Cu1424   2.035       .  S
Cu1423    Cu1424   2.377       .  S
C1425      C1440   1.454       .  S
C1426      C1468   1.451       .  S
C1428      C1777   1.488       .  S
O1429      C1439   1.283       .  A
O1429     Cu1437   2.056       .  S
O1430      C1440   1.284       .  A
O1430     Cu1437   2.033       .  S
O1431      C1441   1.268       .  A
O1431     Cu1437   1.957       .  S
O1432      C1442   1.270       .  A
O1432     Cu1437   1.958       .  S
O1433      C1442   1.281       .  A
O1433     Cu1438   2.035       .  S
O1434      C1441   1.282       .  A
O1434     Cu1438   2.013       .  S
O1435      C1440   1.270       .  A
O1435     Cu1438   1.984       .  S
O1436      C1439   1.279       .  A
O1436     Cu1438   2.030       .  S
Cu1437    Cu1438   2.377       .  S
C1439      C1610   1.488       .  S
C1442      C1453   1.454       .  S
O1443      C1453   1.270       .  A
O1443     Cu1451   1.984       .  S
O1444      C1454   1.279       .  A
O1444     Cu1451   2.030       .  S
O1445      C1455   1.281       .  A
O1445     Cu1451   2.035       .  S
O1447      C1456   1.268       .  A
O1447     Cu1452   1.957       .  S
O1448      C1455   1.270       .  A
O1448     Cu1452   1.959       .  S
O1449      C1454   1.283       .  A
O1449     Cu1452   2.056       .  S
O1450      C1453   1.284       .  A
O1450     Cu1452   2.034       .  S
Cu1451    Cu1452   2.377       .  S
C1454      C1761   1.488       .  S
C1456      C1512   1.451       .  S
O1457      C1467   1.281       .  A
O1457     Cu1465   2.035       .  S
O1458      C1468   1.282   1_554  A
O1458     Cu1465   2.014       .  S
O1459      C1469   1.270       .  A
O1459     Cu1465   1.984       .  S
O1460      C1470   1.279   1_554  A
O1460     Cu1465   2.030       .  S
O1461      C1470   1.283       .  A
O1461     Cu1466   2.056   1_556  S
O1462      C1469   1.284       .  A
O1462     Cu1466   2.034       .  S
O1463      C1468   1.268       .  A
O1463     Cu1466   1.957   1_556  S
O1464      C1467   1.270       .  A
O1464     Cu1466   1.958       .  S
Cu1465    Cu1466   2.377       .  S
C1467      C1496   1.454       .  S
C1469      C1481   1.455       .  S
C1470      C1649   1.488       .  S
O1471      C1481   1.270       .  A
O1471     Cu1479   1.958       .  S
O1472      C1482   1.268       .  A
O1472     Cu1479   1.957       .  S
O1473      C1483   1.284       .  A
O1473     Cu1479   2.034       .  S
O1474      C1484   1.283       .  A
O1474     Cu1479   2.056       .  S
O1475      C1484   1.279       .  A
O1475     Cu1480   2.030       .  S
O1476      C1483   1.270       .  A
O1476     Cu1480   1.984       .  S
O1477      C1482   1.282       .  A
O1477     Cu1480   2.014       .  S
O1478      C1481   1.281       .  A
O1478     Cu1480   2.035       .  S
Cu1479    Cu1480   2.377       .  S
C1482      C1552   1.451       .  S
C1483      C1511   1.455       .  S
C1484      C1691   1.488       .  S
O1485      C1495   1.279       .  A
O1486      C1496   1.270       .  A
O1486     Cu1493   1.984       .  S
O1487      C1497   1.282       .  A
O1487     Cu1493   2.013       .  S
O1488      C1498   1.281       .  A
O1488     Cu1493   2.035       .  S
O1489      C1498   1.270       .  A
O1489     Cu1494   1.958       .  S
O1490      C1497   1.268       .  A
O1490     Cu1494   1.957       .  S
O1491      C1496   1.284       .  A
O1491     Cu1494   2.033       .  S
O1492     Cu1494   2.056       .  S
Cu1493    Cu1494   2.377       .  S
C1495      C1733   1.488       .  S
C1497      C1526   1.451       .  S
C1498      C1509   1.454       .  S
O1499      C1509   1.284       .  A
O1499     Cu1507   2.033       .  S
O1500      C1510   1.283       .  A
O1500     Cu1507   2.056   1_556  S
O1501      C1511   1.270       .  A
O1501     Cu1507   1.959       .  S
O1502     Cu1507   1.957   1_556  S
O1503      C1512   1.282   1_554  A
O1503     Cu1508   2.014   1_565  S
O1504      C1511   1.281       .  A
O1505     Cu1508   2.030       .  S
O1506     Cu1508   1.984       .  S
C1510      C1677   1.488       .  S
O1513      C1523   1.284       .  A
O1513     Cu1521   2.034       .  S
O1514      C1524   1.283       .  A
O1514     Cu1521   2.056       .  S
O1515      C1525   1.270       .  A
O1515     Cu1521   1.958       .  S
O1516      C1526   1.268       .  A
O1516     Cu1521   1.957       .  S
O1517      C1526   1.282       .  A
O1517     Cu1522   2.013       .  S
O1518      C1525   1.281       .  A
O1518     Cu1522   2.035       .  S
O1519      C1524   1.279       .  A
O1519     Cu1522   2.030       .  S
O1520      C1523   1.270       .  A
O1520     Cu1522   1.984       .  S
Cu1521    Cu1522   2.377       .  S
C1523      C1566   1.454       .  S
C1524      C1789   1.488       .  S
C1525      C1539   1.454       .  S
O1527      C1537   1.270       .  A
O1527     Cu1535   1.959       .  S
O1528      C1538   1.268       .  A
O1528     Cu1535   1.957       .  S
O1529      C1539   1.284       .  A
O1530      C1540   1.283       .  A
O1530     Cu1535   2.056       .  S
O1531      C1540   1.279       .  A
O1531     Cu1536   2.030       .  S
O1532     Cu1536   1.984       .  S
O1533      C1538   1.282       .  A
O1533     Cu1536   2.014       .  S
O1534      C1537   1.281       .  A
O1534     Cu1536   2.035       .  S
Cu1535    Cu1536   2.377       .  S
C1537      C1553   1.455       .  S
C1540      C1593   1.488       .  S
O1541      C1551   1.281       .  A
O1541     Cu1549   2.035       .  S
O1542      C1552   1.282       .  A
O1542     Cu1549   2.014       .  S
O1543      C1553   1.270       .  A
O1543     Cu1549   1.984       .  S
O1544      C1554   1.279       .  A
O1545     Cu1550   2.056       .  S
O1546      C1553   1.284       .  A
O1546     Cu1550   2.034       .  S
O1547      C1552   1.268       .  A
O1547     Cu1550   1.957       .  S
O1548      C1551   1.270       .  A
O1548     Cu1550   1.959       .  S
Cu1549    Cu1550   2.377       .  S
C1554      C1747   1.488       .  S
O1555     Cu1563   1.957       .  S
O1556      C1566   1.270       .  A
O1556     Cu1563   1.958       .  S
O1557      C1567   1.283       .  A
O1557     Cu1563   2.056       .  S
O1558      C1568   1.284       .  A
O1558     Cu1563   2.034   1_455  S
O1559     Cu1564   1.984       .  S
O1560     Cu1564   2.031       .  S
O1561      C1566   1.281       .  A
O1562      C1565   1.282       .  A
O1562     Cu1564   2.014   1_565  S
C1567      C1621   1.488       .  S
O1569      C1579   1.283       .  A
O1569     Cu1577   2.056       .  S
O1570      C1580   1.284       .  A
O1570     Cu1577   2.034       .  S
O1571      C1581   1.268       .  A
O1571     Cu1577   1.957       .  S
O1572      C1582   1.270       .  A
O1572     Cu1577   1.958       .  S
O1573      C1582   1.281       .  A
O1573     Cu1578   2.035       .  S
O1574      C1581   1.282       .  A
O1574     Cu1578   2.013       .  S
O1575      C1580   1.270       .  A
O1575     Cu1578   1.984       .  S
O1576      C1579   1.279       .  A
O1576     Cu1578   2.030       .  S
Cu1577    Cu1578   2.377       .  S
C1580      C1624   1.455       .  S
C1581      C1666   1.451       .  S
C1582      C1594   1.454       .  S
O1583      C1593   1.279       .  A
O1583     Cu1591   2.030       .  S
O1584      C1594   1.270       .  A
O1584     Cu1591   1.984       .  S
O1585      C1595   1.282       .  A
O1585     Cu1591   2.013       .  S
O1586      C1596   1.281       .  A
O1586     Cu1591   2.035       .  S
O1587      C1596   1.270       .  A
O1587     Cu1592   1.958       .  S
O1588      C1595   1.268       .  A
O1588     Cu1592   1.957       .  S
O1589      C1594   1.284       .  A
O1589     Cu1592   2.033       .  S
O1590      C1593   1.283       .  A
O1590     Cu1592   2.056       .  S
Cu1591    Cu1592   2.377       .  S
C1595      C1708   1.451       .  S
C1596      C1609   1.454       .  S
O1597      C1607   1.281       .  A
O1597     Cu1605   2.035       .  S
O1598      C1608   1.282       .  A
O1598     Cu1605   2.014       .  S
O1599      C1609   1.270       .  A
O1599     Cu1605   1.984       .  S
O1600      C1610   1.279       .  A
O1601     Cu1606   2.056       .  S
O1602      C1609   1.284       .  A
O1602     Cu1606   2.033       .  S
O1603      C1608   1.268       .  A
O1603     Cu1606   1.957       .  S
O1604      C1607   1.270       .  A
O1604     Cu1606   1.959       .  S
Cu1605    Cu1606   2.377       .  S
C1607      C1622   1.455       .  S
C1608      C1638   1.451       .  S
O1611     Cu1619   2.031       .  S
O1612     Cu1619   1.984       .  S
O1613      C1623   1.282       .  A
O1613     Cu1619   2.014   1_565  S
O1614      C1624   1.281       .  A
O1615      C1624   1.270       .  A
O1615     Cu1620   1.958       .  S
O1616     Cu1620   1.957       .  S
O1617      C1622   1.284       .  A
O1617     Cu1620   2.034       .  S
O1618      C1621   1.283       .  A
O1618     Cu1620   2.056       .  S
C1623      C1722   1.451       .  S
O1625      C1635   1.270       .  A
O1625     Cu1633   1.984       .  S
O1626      C1636   1.279       .  A
O1626     Cu1633   2.030       .  S
O1627      C1637   1.281       .  A
O1627     Cu1633   2.035       .  S
O1628      C1638   1.282       .  A
O1628     Cu1633   2.014       .  S
O1629      C1638   1.268       .  A
O1629     Cu1634   1.957       .  S
O1630      C1637   1.270       .  A
O1630     Cu1634   1.959       .  S
O1631      C1636   1.283       .  A
O1631     Cu1634   2.056       .  S
O1632      C1635   1.284       .  A
O1632     Cu1634   2.034       .  S
Cu1633    Cu1634   2.377       .  S
C1635      C1680   1.454       .  S
O1639      C1649   1.283       .  A
O1639     Cu1647   2.056       .  S
O1640      C1650   1.284       .  A
O1640     Cu1647   2.034   1_455  S
O1641      C1651   1.268       .  A
O1641     Cu1647   1.957       .  S
O1642      C1652   1.270       .  A
O1642     Cu1647   1.958       .  S
O1643      C1652   1.281       .  A
O1643     Cu1648   2.035       .  S
O1644      C1651   1.282       .  A
O1644     Cu1648   2.014       .  S
O1645      C1650   1.270   1_655  A
O1645     Cu1648   1.984       .  S
O1646      C1649   1.279       .  A
O1646     Cu1648   2.030       .  S
Cu1647    Cu1648   2.377       .  S
C1652      C1663   1.455       .  S
O1653      C1663   1.270       .  A
O1653     Cu1661   1.984       .  S
O1654      C1664   1.279       .  A
O1655      C1665   1.281       .  A
O1655     Cu1661   2.035       .  S
O1656      C1666   1.282       .  A
O1656     Cu1661   2.014       .  S
O1657      C1666   1.268       .  A
O1657     Cu1662   1.957       .  S
O1658      C1665   1.270       .  A
O1658     Cu1662   1.958       .  S
O1659     Cu1662   2.056       .  S
O1660      C1663   1.284       .  A
O1660     Cu1662   2.034       .  S
Cu1661    Cu1662   2.377       .  S
C1665      C1678   1.454       .  S
O1667      C1677   1.283       .  A
O1667     Cu1675   2.056       .  S
O1668     Cu1675   2.033       .  S
O1669     Cu1675   1.957       .  S
O1670      C1680   1.270       .  A
O1670     Cu1675   1.958       .  S
O1671      C1680   1.281       .  A
O1672      C1679   1.282       .  A
O1672     Cu1676   2.013   1_565  S
O1673     Cu1676   1.984       .  S
O1674     Cu1676   2.030       .  S
O1681      C1691   1.279       .  A
O1681     Cu1689   2.030       .  S
O1682      C1692   1.270       .  A
O1682     Cu1689   1.984       .  S
O1683      C1693   1.282       .  A
O1683     Cu1689   2.013       .  S
O1684      C1694   1.281       .  A
O1684     Cu1689   2.035       .  S
O1685      C1694   1.270       .  A
O1685     Cu1690   1.958       .  S
O1686      C1693   1.268       .  A
O1686     Cu1690   1.957       .  S
O1687      C1692   1.284       .  A
O1687     Cu1690   2.034       .  S
O1688      C1691   1.283       .  A
O1688     Cu1690   2.056       .  S
Cu1689    Cu1690   2.377       .  S
C1692      C1721   1.455       .  S
C1693      C1749   1.451       .  S
C1694      C1705   1.454       .  S
O1695      C1705   1.284       .  A
O1695     Cu1703   2.034       .  S
O1696      C1706   1.283       .  A
O1696     Cu1703   2.056       .  S
O1697      C1707   1.270       .  A
O1697     Cu1703   1.958       .  S
O1698      C1708   1.268       .  A
O1698     Cu1703   1.957       .  S
O1699      C1708   1.282       .  A
O1699     Cu1704   2.013       .  S
O1700      C1707   1.281       .  A
O1700     Cu1704   2.034       .  S
O1701      C1706   1.279       .  A
O1701     Cu1704   2.030       .  S
O1702      C1705   1.270       .  A
O1702     Cu1704   1.984       .  S
Cu1703    Cu1704   2.377       .  S
C1707      C1734   1.454       .  S
O1709      C1719   1.284       .  A
O1709     Cu1717   2.034       .  S
O1710      C1720   1.283       .  A
O1710     Cu1717   2.056       .  S
O1711      C1721   1.270       .  A
O1711     Cu1717   1.958       .  S
O1712      C1722   1.268       .  A
O1712     Cu1717   1.957       .  S
O1714      C1721   1.281       .  A
O1714     Cu1718   2.035       .  S
O1715      C1720   1.279       .  A
O1715     Cu1718   2.031       .  S
O1716      C1719   1.270       .  A
O1716     Cu1718   1.984       .  S
Cu1717    Cu1718   2.377       .  S
C1719      C1736   1.455       .  S
O1723      C1733   1.279       .  A
O1723     Cu1731   2.030       .  S
O1724      C1734   1.270       .  A
O1724     Cu1731   1.984       .  S
O1725      C1735   1.282       .  A
O1725     Cu1731   2.014       .  S
O1726      C1736   1.281       .  A
O1726     Cu1731   2.035       .  S
O1727      C1736   1.270       .  A
O1727     Cu1732   1.959       .  S
O1728      C1735   1.268       .  A
O1728     Cu1732   1.957       .  S
O1729      C1734   1.284       .  A
O1729     Cu1732   2.033       .  S
O1730      C1733   1.283       .  A
O1730     Cu1732   2.056       .  S
Cu1731    Cu1732   2.377       .  S
C1735      C1791   1.451       .  S
O1737      C1747   1.283       .  A
O1737     Cu1745   2.056       .  S
O1738      C1748   1.284       .  A
O1738     Cu1745   2.034       .  S
O1739      C1749   1.268       .  A
O1739     Cu1745   1.957       .  S
O1740      C1750   1.270       .  A
O1740     Cu1745   1.958       .  S
O1741      C1750   1.281       .  A
O1741     Cu1746   2.035       .  S
O1742      C1749   1.282       .  A
O1742     Cu1746   2.014       .  S
O1743      C1748   1.270       .  A
O1743     Cu1746   1.984       .  S
O1744      C1747   1.279       .  A
O1744     Cu1746   2.031       .  S
Cu1745    Cu1746   2.377       .  S
C1748      C1776   1.455       .  S
O1751      C1761   1.279   1_554  A
O1751     Cu1759   2.030       .  S
O1752      C1762   1.270   1_655  A
O1752     Cu1759   1.984       .  S
O1754      C1764   1.281       .  A
O1754     Cu1759   2.035       .  S
O1755      C1764   1.270       .  A
O1755     Cu1760   1.958       .  S
O1756      C1763   1.268       .  A
O1756     Cu1760   1.957   1_556  S
O1757      C1762   1.284       .  A
O1757     Cu1760   2.034   1_455  S
O1758      C1761   1.283       .  A
O1758     Cu1760   2.056   1_556  S
Cu1759    Cu1760   2.377       .  S
C1764      C1790   1.454       .  S
O1765      C1775   1.268       .  A
O1765     Cu1773   1.957   1_556  S
O1766      C1776   1.270       .  A
O1766     Cu1773   1.958       .  S
O1767      C1777   1.283       .  A
O1767     Cu1773   2.056   1_556  S
O1768      C1778   1.284       .  A
O1769     Cu1774   1.984       .  S
O1770      C1777   1.279   1_554  A
O1770     Cu1774   2.031       .  S
O1771      C1776   1.281       .  A
O1771     Cu1774   2.035       .  S
O1772      C1775   1.282   1_554  A
O1772     Cu1774   2.014       .  S
Cu1773    Cu1774   2.377       .  S
C1778      C1792   1.455       .  S
O1779      C1789   1.283       .  A
O1779     Cu1787   2.056       .  S
O1780      C1790   1.284       .  A
O1780     Cu1787   2.033       .  S
O1781      C1791   1.268       .  A
O1781     Cu1787   1.957       .  S
O1782      C1792   1.270       .  A
O1782     Cu1787   1.959       .  S
O1783      C1792   1.281       .  A
O1783     Cu1788   2.035       .  S
O1784      C1791   1.282       .  A
O1784     Cu1788   2.014       .  S
O1785      C1790   1.270       .  A
O1785     Cu1788   1.983       .  S
O1786      C1789   1.279       .  A
O1786     Cu1788   2.030       .  S
Cu1787    Cu1788   2.377       .  S
