geometry optimzed in LAMMPS
_audit_creation_date              2020-12-01 
_audit_creation_method            'lammps2cif' 
_symmetry_space_group_name_H-M    'P1' 
_symmetry_Int_Tables_number       1 
_symmetry_cell_setting            triclinic 
loop_ 
_symmetry_equiv_pos_as_xyz 
  x,y,z 
_cell_length_a                    30.31421971 
_cell_length_b                    29.932886347717616 
_cell_length_c                    30.53410943733618 
_cell_angle_alpha                 89.91915892855621 
_cell_angle_beta                  89.924533953514 
_cell_angle_gamma                 89.98835985671346 
loop_ 
_atom_site_label 
_atom_site_type_symbol 
_atom_site_fract_x 
_atom_site_fract_y 
_atom_site_fract_z 
_atom_site_charge 
C1          C  0.23559881  0.24320253  0.22104074     0.31800
C2          C  0.28411311  0.28690838  0.28157005     0.31800
C3          C  0.21746085  0.28888371  0.23499875    -0.04400
C4          C  0.24156515  0.21873972  0.26475683    -0.05100
C5          C  0.28305649  0.25393811  0.20751107    -0.05000
C6          C  0.24232640  0.31141994  0.26613402    -0.04400
C7          C  0.26651693  0.24107297  0.29586401    -0.05100
C8          C  0.30801068  0.27640468  0.23850501    -0.05000
C9          C  0.22071096  0.35097354  0.27495773    -0.30400
N10         N  0.18345115  0.35299409  0.25017024     0.16100
C11         C  0.18135994  0.31509367  0.22547910    -0.30400
H12         H  0.15558898  0.30662719  0.20252565     0.18000
C13         C  0.26853577  0.21402280  0.33239768    -0.29400
N14         N  0.24537279  0.17586793  0.32414280     0.14800
C15         C  0.22876947  0.17864570  0.28290302    -0.29400
C16         C  0.34922082  0.28326349  0.22059693    -0.29700
N17         N  0.34987903  0.26542496  0.17967371     0.15300
H18         H  0.37668442  0.30008560  0.23607820     0.18000
C19         C  0.30938367  0.24748765  0.17142368    -0.29700
H20         H  0.29918824  0.23135580  0.14147235     0.18000
H21         H  0.20893122  0.15321753  0.26723244     0.18000
H22         H  0.23097198  0.37619086  0.29818452     0.18000
H23         H  0.28532979  0.22201446  0.36259178     0.18000
N24         N  0.99687521  0.43017474  0.23552240    -0.34800
N25         N  0.06126730  0.50296161  0.24263097    -0.55300
N26         N  0.98798463  0.56630359  0.24246377    -0.34800
N27         N  0.92445665  0.49306654  0.24210099    -0.55300
C28         C  0.03456384  0.40721725  0.24341698     0.28800
C29         C  0.96269595  0.40198756  0.24334134     0.28800
C30         C  0.02235320  0.59285383  0.25364357     0.28800
C31         C  0.95050505  0.58762667  0.25475549     0.28800
C32         C  0.08812864  0.46892876  0.23061444     0.37400
C33         C  0.08323859  0.54133342  0.23364519     0.37400
C34         C  0.90162972  0.45588225  0.23116151     0.37400
C35         C  0.89702589  0.52802259  0.23538157     0.37400
C36         C  0.02415951  0.36406909  0.25650752    -0.20100
C37         C  0.97890488  0.36078884  0.25647086    -0.20100
C38         C  0.00658272  0.63128947  0.27354462    -0.20100
C39         C  0.96130463  0.62785632  0.27453225    -0.20100
C40         C  0.12729480  0.48574485  0.21395673    -0.21100
C41         C  0.12413098  0.53154937  0.21567843    -0.21100
C42         C  0.85968518  0.46738554  0.21701405    -0.21100
C43         C  0.85667789  0.51304982  0.21996077    -0.21100
C44         C  0.07799284  0.42294215  0.23561906    -0.16500
C45         C  0.91745486  0.41167190  0.23652729    -0.16500
C46         C  0.90693068  0.57286289  0.24585763    -0.16500
C47         C  0.06719189  0.58480460  0.24323718    -0.16500
H48         H  0.04684237  0.33743573  0.26476291     0.16500
H49         H  0.96013602  0.33120766  0.26478909     0.16500
H50         H  0.02571463  0.65909213  0.28584949     0.16500
H51         H  0.93893814  0.65251896  0.28788059     0.16500
H52         H  0.15503662  0.46705917  0.20123450     0.14700
H53         H  0.14901622  0.55483098  0.20450554     0.14700
H54         H  0.83380053  0.44527734  0.20589321     0.14700
H55         H  0.82801887  0.53292318  0.21174265     0.14700
H56         H  0.99488110  0.46128340  0.22068463     0.28000
H57         H  0.98980038  0.53807046  0.22281045     0.28000
C58         C  0.77211120  0.78196793  0.20888241     0.31800
C59         C  0.72209295  0.72662716  0.25806499     0.31800
C60         C  0.79353681  0.73722277  0.22033286    -0.04400
C61         C  0.75847204  0.80025992  0.25354293    -0.05100
C62         C  0.72836146  0.76801427  0.18823106    -0.05000
C63         C  0.76804563  0.70854768  0.24571219    -0.04400
C64         C  0.73277213  0.77208878  0.27896193    -0.05100
C65         C  0.70237185  0.73948028  0.21320749    -0.05000
C66         C  0.79283894  0.67040272  0.25237980    -0.30400
N67         N  0.83246193  0.67551185  0.23159869     0.16100
C68         C  0.83295138  0.71624697  0.21198953    -0.30400
H69         H  0.86012304  0.72961986  0.19302583     0.18000
C70         C  0.72592674  0.79342048  0.31858201    -0.29400
N71         N  0.74699491  0.83367686  0.31741177     0.14800
C72         C  0.76699657  0.83788936  0.27781238    -0.29400
C73         C  0.66570929  0.72935322  0.18811033    -0.29700
N74         N  0.66917177  0.75113176  0.14884710     0.15300
H75         H  0.63896013  0.70761660  0.19785566     0.18000
C76         C  0.70737955  0.77477159  0.14892013    -0.29700
H77         H  0.71922133  0.79515995  0.12205327     0.18000
H78         H  0.78689542  0.86611019  0.26767533     0.18000
H79         H  0.78252220  0.64139599  0.27086036     0.18000
H80         H  0.70795063  0.78002697  0.34624933     0.18000
N81         N  0.24396475  0.94269097  0.49669191    -0.34800
N82         N  0.24172667  0.01438713  0.43110854    -0.55300
N83         N  0.25056072  0.07877117  0.50122345    -0.34800
N84         N  0.24489260  0.00847909  0.56778452    -0.55300
C85         C  0.23095368  0.91979272  0.46058786     0.28800
C86         C  0.23548755  0.91657888  0.53203680     0.28800
C87         C  0.24375610  0.10616134  0.46652054     0.28800
C88         C  0.24362803  0.10321995  0.53784124     0.28800
C89         C  0.24646527  0.97849578  0.40468224     0.37400
C90         C  0.25341842  0.05055935  0.40704848     0.37400
C91         C  0.25388081  0.97097610  0.59103662     0.37400
C92         C  0.25608358  0.04358186  0.59348180     0.37400
C93         C  0.21385337  0.87879092  0.47332019    -0.20100
C94         C  0.21709260  0.87660624  0.51821632    -0.20100
C95         C  0.23188748  0.14827661  0.48126117    -0.20100
C96         C  0.23173150  0.14641639  0.52620494    -0.20100
C97         C  0.26082521  0.99192039  0.36361370    -0.21100
C98         C  0.26576074  0.03746252  0.36526485    -0.21100
C99         C  0.27053182  0.98244340  0.63179811    -0.21100
C100        C  0.27173122  0.02834401  0.63339838    -0.21100
C101        C  0.23630600  0.93395985  0.41640502    -0.16500
C102        C  0.24597153  0.92669462  0.57621616    -0.16500
C103        C  0.25219291  0.08915364  0.58127544    -0.16500
C104        C  0.25137134  0.09526529  0.42209033    -0.16500
H105        H  0.20056915  0.85286247  0.45251756     0.16500
H106        H  0.20681588  0.84874237  0.53842715     0.16500
H107        H  0.22478631  0.17756810  0.46166730     0.16500
H108        H  0.22465991  0.17409133  0.54789540     0.16500
H109        H  0.26771153  0.97098910  0.33554653     0.14700
H110        H  0.27731176  0.05829385  0.33865624     0.14700
H111        H  0.28139201  0.96021465  0.65757898     0.14700
H112        H  0.28363686  0.04810600  0.66056681     0.14700
H113        H  0.26196251  0.97221724  0.49694415     0.28000
H114        H  0.26506905  0.04736500  0.50009409     0.28000
N115        N  0.74216945  0.98393528  0.42979240    -0.34800
N116        N  0.74577330  0.05549412  0.49341283    -0.55300
N117        N  0.73880987  0.99101703  0.56519664    -0.34800
N118        N  0.72799121  0.91971075  0.50048018    -0.55300
C119        C  0.73766666  0.02017823  0.40356805     0.28800
C120        C  0.72677170  0.94828681  0.40729024     0.28800
C121        C  0.72990341  0.02975977  0.58650545     0.28800
C122        C  0.72410455  0.95699573  0.59065124     0.28800
C123        C  0.75961799  0.07789234  0.45736660     0.37400
C124        C  0.75465185  0.08205079  0.52809077     0.37400
C125        C  0.73289565  0.89131262  0.46623599     0.37400
C126        C  0.73281553  0.89481956  0.53728419     0.37400
C127        C  0.71904654  0.00749647  0.36406125    -0.20100
C128        C  0.71183253  0.96220968  0.36653468    -0.20100
C129        C  0.70925022  0.02007943  0.62597766    -0.20100
C130        C  0.70589514  0.97423326  0.62871615    -0.20100
C131        C  0.77820903  0.11836796  0.46937083    -0.21100
C132        C  0.77457252  0.12122806  0.51408518    -0.21100
C133        C  0.74054881  0.84836207  0.48136039    -0.21100
C134        C  0.74057902  0.85057220  0.52624528    -0.21100
C135        C  0.75162508  0.06399478  0.41374502    -0.16500
C136        C  0.72887292  0.90321656  0.42150762    -0.16500
C137        C  0.72773844  0.91081284  0.58070425    -0.16500
C138        C  0.74134112  0.07331047  0.57165541    -0.16500
H139        H  0.71132530  0.02866633  0.33634202     0.16500
H140        H  0.69747757  0.94185361  0.34099812     0.16500
H141        H  0.69749330  0.04347144  0.65030947     0.16500
H142        H  0.69102967  0.95577126  0.65541912     0.16500
H143        H  0.79211284  0.14369960  0.44814937     0.14700
H144        H  0.78509284  0.14912991  0.53401740     0.14700
H145        H  0.74577847  0.81849187  0.46211447     0.14700
H146        H  0.74575003  0.82264596  0.54819114     0.14700
H147        H  0.75941072  0.98275467  0.45921986     0.28000
H148        H  0.75743338  0.98761808  0.53674164     0.28000
C149        C  0.21251019  0.78581226  0.78032236     0.31800
C150        C  0.25613262  0.73451843  0.72182426     0.31800
C151        C  0.18877927  0.74256294  0.76702869    -0.04400
C152        C  0.22223671  0.80808035  0.73615691    -0.05100
C153        C  0.25805537  0.76948710  0.79519742    -0.05000
C154        C  0.21107575  0.71601988  0.73691810    -0.04400
C155        C  0.24473395  0.78199059  0.70599688    -0.05100
C156        C  0.28041068  0.74311975  0.76522512    -0.05000
C157        C  0.18418745  0.67968902  0.72820104    -0.30400
N158        N  0.14631708  0.68362491  0.75227580     0.16100
C159        C  0.14906365  0.72201049  0.77594911    -0.30400
H160        H  0.12378286  0.73424224  0.79794922     0.18000
C161        C  0.25042927  0.80783628  0.66880165    -0.29400
N162        N  0.23178087  0.84876466  0.67586093     0.14800
C163        C  0.21446504  0.84894759  0.71692597    -0.29400
C164        C  0.32048047  0.73213931  0.78382261    -0.29700
N165        N  0.32312421  0.75116615  0.82421050     0.15300
H166        H  0.34597149  0.71181349  0.76900117     0.18000
C167        C  0.28492594  0.77416243  0.83142349    -0.29700
H168        H  0.27680378  0.79268809  0.86070843     0.18000
H169        H  0.19747283  0.87692309  0.73176477     0.18000
H170        H  0.19173503  0.65291039  0.70568577     0.18000
H171        H  0.26664685  0.79725359  0.63902019     0.18000
N172        N  0.05922692  0.49903668  0.74331263    -0.34800
N173        N  0.99033316  0.56803417  0.74362389    -0.55300
N174        N  0.92292611  0.49731525  0.74497983    -0.34800
N175        N  0.99210609  0.42987026  0.75241959    -0.55300
C176        C  0.08334860  0.53657871  0.74978818     0.28800
C177        C  0.08429144  0.46382334  0.75630748     0.28800
C178        C  0.89776211  0.53404708  0.75221599     0.28800
C179        C  0.89867614  0.46103287  0.75665615     0.28800
C180        C  0.02576597  0.59340145  0.73251966     0.37400
C181        C  0.95385197  0.59263482  0.73452515     0.37400
C182        C  0.02827046  0.40383663  0.74708663     0.37400
C183        C  0.95671416  0.40284494  0.74702043     0.37400
C184        C  0.12413832  0.52506393  0.76694850    -0.20100
C185        C  0.12456868  0.47935105  0.77146071    -0.20100
C186        C  0.85698162  0.52083512  0.76840924    -0.20100
C187        C  0.85764245  0.47494857  0.77139084    -0.20100
C188        C  0.01165961  0.63419659  0.71622598    -0.21100
C189        C  0.96626970  0.63375049  0.71757152    -0.21100
C190        C  0.01574702  0.36026927  0.73811257    -0.21100
C191        C  0.97052443  0.35964192  0.73804131    -0.21100
C192        C  0.07059449  0.58078394  0.73870706    -0.16500
C193        C  0.07238330  0.41800904  0.75322898    -0.16500
C194        C  0.91216463  0.41567681  0.75309863    -0.16500
C195        C  0.90958619  0.57899372  0.74267644    -0.16500
H196        H  0.15080284  0.54735985  0.77570508     0.16500
H197        H  0.15161749  0.45991791  0.78453323     0.16500
H198        H  0.82952033  0.54206142  0.77738802     0.16500
H199        H  0.83086584  0.45429995  0.78323988     0.16500
H200        H  0.03185349  0.66145565  0.70437043     0.14700
H201        H  0.94491898  0.66057228  0.70683702     0.14700
H202        H  0.03696128  0.33176887  0.73242948     0.14700
H203        H  0.95015796  0.33053843  0.73231325     0.14700
H204        H  0.02934801  0.49733048  0.72671701     0.28000
H205        H  0.95318459  0.49682871  0.72896839     0.28000
C206        C  0.71339615  0.26793143  0.71010052     0.31800
C207        C  0.76525329  0.22536391  0.76890455     0.31800
C208        C  0.75538029  0.29305979  0.72362293    -0.04400
C209        C  0.69162233  0.25731688  0.75424287    -0.05100
C210        C  0.73100552  0.22215506  0.69532118    -0.05000
C211        C  0.78206263  0.27133042  0.75380473    -0.04400
C212        C  0.71814753  0.23541015  0.78438209    -0.05100
C213        C  0.75767842  0.20043576  0.72564733    -0.05000
C214        C  0.81728314  0.29925882  0.76239814    -0.30400
N215        N  0.81260070  0.33732034  0.73810262     0.16100
C216        C  0.77480895  0.33364354  0.71442634    -0.30400
H217        H  0.76236012  0.35875408  0.69208111     0.18000
C218        C  0.69357485  0.22975175  0.82198983    -0.29400
N219        N  0.65279111  0.24780761  0.81539010     0.14800
C220        C  0.65145458  0.26470529  0.77406665    -0.29400
C221        C  0.76844880  0.15937344  0.70837883    -0.29700
N222        N  0.74919179  0.15532453  0.66840023     0.15300
H223        H  0.78818425  0.13385551  0.72412156     0.18000
C224        C  0.72607865  0.19361933  0.66014653    -0.29700
H225        H  0.70622744  0.20012344  0.63145694     0.18000
H226        H  0.62346034  0.28175128  0.75974512     0.18000
H227        H  0.84407022  0.29202044  0.78462852     0.18000
H228        H  0.70519861  0.21453351  0.85194857     0.18000
N229        N  0.55241609  0.74379427  0.99832177    -0.34800
N230        N  0.48613599  0.74389608  0.06765705    -0.55300
N231        N  0.41630549  0.75745704  0.00317610    -0.34800
N232        N  0.48174886  0.74958295  0.93270005    -0.55300
C233        C  0.57677964  0.72948547  0.03287694     0.28800
C234        C  0.57456156  0.73261020  0.96130825     0.28800
C235        C  0.39175476  0.74840537  0.03935918     0.28800
C236        C  0.38961898  0.75302373  0.96784720     0.28800
C237        C  0.52303602  0.74563889  0.09253125     0.37400
C238        C  0.45187245  0.75201297  0.09498755     0.37400
C239        C  0.51757560  0.75488885  0.90650577     0.37400
C240        C  0.44613415  0.76246655  0.90888597     0.37400
C241        C  0.61479984  0.70899922  0.01764198    -0.20100
C242        C  0.61331734  0.71075449  0.97259776    -0.20100
C243        C  0.34894850  0.73840854  0.02677373    -0.20100
C244        C  0.34752394  0.74162848  0.98184475    -0.20100
C245        C  0.51212288  0.75516507  0.13563502    -0.21100
C246        C  0.46714938  0.75905768  0.13720509    -0.21100
C247        C  0.50456925  0.77104316  0.86595879    -0.21100
C248        C  0.45954764  0.77607639  0.86754636    -0.21100
C249        C  0.56612700  0.73548195  0.07779749    -0.16500
C250        C  0.56163389  0.74343928  0.91778090    -0.16500
C251        C  0.40154417  0.76056327  0.92342464    -0.16500
C252        C  0.40674330  0.74975265  0.08343210    -0.16500
H253        H  0.64078568  0.69394058  0.03693640     0.16500
H254        H  0.63801109  0.69719769  0.95072051     0.16500
H255        H  0.32146731  0.72941724  0.04762660     0.16500
H256        H  0.31874036  0.73569479  0.96173964     0.16500
H257        H  0.53415987  0.75842388  0.16330612     0.14700
H258        H  0.44785927  0.76592324  0.16628624     0.14700
H259        H  0.52535452  0.77877719  0.83812165     0.14700
H260        H  0.43919583  0.78864263  0.84119347     0.14700
H261        H  0.52457906  0.76403078  0.99993295     0.28000
H262        H  0.44828842  0.76989949  0.00277392     0.28000
N263        N  0.50257010  0.24844870  0.93134188    -0.34800
N264        N  0.57035595  0.24388112  0.99915731    -0.55300
N265        N  0.50432734  0.25165684  0.06768295    -0.34800
N266        N  0.43671221  0.25125466  0.00008261    -0.55300
C267        C  0.53768771  0.23328474  0.90831606     0.28800
C268        C  0.46573157  0.23695493  0.90890990     0.28800
C269        C  0.53979477  0.23748839  0.09072015     0.28800
C270        C  0.46794823  0.24094393  0.09120068     0.28800
C271        C  0.59580689  0.24977069  0.96315811     0.37400
C272        C  0.59669363  0.25152473  0.03415363     0.37400
C273        C  0.41100785  0.25952990  0.96483922     0.37400
C274        C  0.41204779  0.26133184  0.03562219     0.37400
C275        C  0.52298681  0.21184309  0.87081680    -0.20100
C276        C  0.47757079  0.21422028  0.87116943    -0.20100
C277        C  0.52575698  0.21736742  0.12924962    -0.20100
C278        C  0.48038167  0.21963221  0.12958704    -0.20100
C279        C  0.63821492  0.26182305  0.97537143    -0.21100
C280        C  0.63876504  0.26294005  0.02029992    -0.21100
C281        C  0.37025968  0.27572208  0.97802426    -0.21100
C282        C  0.37091829  0.27686164  0.02288781    -0.21100
C283        C  0.58252457  0.23991996  0.91982177    -0.16500
C284        C  0.42195914  0.24760338  0.92148851    -0.16500
C285        C  0.42407180  0.25124306  0.07912753    -0.16500
C286        C  0.58436696  0.24392535  0.07823053    -0.16500
H287        H  0.54281968  0.19575288  0.84592796     0.16500
H288        H  0.45581794  0.20035345  0.84663228     0.16500
H289        H  0.54598742  0.20222813  0.15438574     0.16500
H290        H  0.45905192  0.20666860  0.15504406     0.16500
H291        H  0.66614714  0.26827858  0.95417651     0.14700
H292        H  0.66717155  0.27042143  0.04042899     0.14700
H293        H  0.34249329  0.28458023  0.95751890     0.14700
H294        H  0.34373635  0.28669644  0.04378367     0.14700
H295        H  0.50392034  0.26914806  0.95870331     0.28000
H296        H  0.50509051  0.27135201  0.03953199     0.28000
C297        C  0.72402666  0.73357331  0.74192004     0.31800
C298        C  0.77420296  0.78681584  0.79286087     0.31800
C299        C  0.77004399  0.71488246  0.75315102    -0.04400
C300        C  0.73451463  0.77982393  0.72272083    -0.05100
C301        C  0.70423457  0.74476983  0.78703548    -0.05000
C302        C  0.79571185  0.74239952  0.77941714    -0.04400
C303        C  0.76029470  0.80714138  0.74883603    -0.05100
C304        C  0.73018577  0.77208876  0.81308952    -0.05000
C305        C  0.83576587  0.72139187  0.78526870    -0.30400
N306        N  0.83543454  0.68184169  0.76333532     0.16100
C307        C  0.79524610  0.67756102  0.74352878    -0.30400
H308        H  0.78488022  0.64976086  0.72346886     0.18000
C309        C  0.76683991  0.84646508  0.72611374    -0.29400
N310        N  0.74558395  0.84385465  0.68696221     0.14800
C311        C  0.72573697  0.80303066  0.68460068    -0.29400
C312        C  0.70722673  0.77975735  0.85131170    -0.29700
N313        N  0.66786929  0.75804273  0.84935901     0.15300
H314        H  0.71812657  0.80018234  0.87845303     0.18000
C315        C  0.66572597  0.73639873  0.81007537    -0.29700
H316        H  0.63837525  0.71634978  0.79874396     0.18000
H317        H  0.70690909  0.79051978  0.65719571     0.18000
H318        H  0.86338537  0.73414049  0.80389112     0.18000
H319        H  0.78600284  0.87482371  0.73708313     0.18000
C320        C  0.76224784  0.22602436  0.23514543     0.31800
C321        C  0.71259772  0.27747721  0.28840552     0.31800
C322        C  0.78251565  0.27156435  0.24720803    -0.04400
C323        C  0.71663914  0.23899393  0.21719339    -0.05100
C324        C  0.75127476  0.20525953  0.28011521    -0.05000
C325        C  0.75678601  0.29770252  0.27469134    -0.04400
C326        C  0.69115836  0.26541905  0.24465469    -0.05100
C327        C  0.72574745  0.23214380  0.30712153    -0.05000
C328        C  0.77889281  0.33708980  0.28165779    -0.30400
N329        N  0.81749926  0.33601088  0.25910206     0.16100
C330        C  0.82012030  0.29600009  0.23779316    -0.30400
H331        H  0.84694433  0.28534385  0.21690735     0.18000
C332        C  0.65245665  0.27476057  0.22298879    -0.29400
N333        N  0.65366895  0.25483613  0.18301557     0.14800
C334        C  0.69288071  0.23278418  0.17918319    -0.29400
C335        C  0.71832252  0.20936972  0.34537319    -0.29700
N336        N  0.73847865  0.16903399  0.34284501     0.15300
H337        H  0.69932458  0.22116343  0.37309978     0.18000
C338        C  0.75891766  0.16600736  0.30302537    -0.29700
H339        H  0.77760064  0.13763489  0.29135849     0.18000
H340        H  0.70386734  0.21407885  0.15094885     0.18000
H341        H  0.76752498  0.36483674  0.30138824     0.18000
H342        H  0.62556637  0.29508930  0.23513131     0.18000
C343        C  0.28085582  0.28116873  0.71969928     0.31800
C344        C  0.23117823  0.23894405  0.78034477     0.31800
C345        C  0.23844997  0.30568726  0.73318724    -0.04400
C346        C  0.26413081  0.23478525  0.70643628    -0.05100
C347        C  0.30370716  0.27213991  0.76353391    -0.05000
C348        C  0.21283935  0.28399764  0.76437444    -0.04400
C349        C  0.23851379  0.21311158  0.73757149    -0.05100
C350        C  0.27833557  0.25036987  0.79473586    -0.05000
C351        C  0.17545447  0.30958278  0.77076711    -0.30400
N352        N  0.17773885  0.34621967  0.74416885     0.16100
C353        C  0.21620860  0.34399240  0.72123905    -0.30400
H354        H  0.22678589  0.36807462  0.69691893     0.18000
C355        C  0.22682611  0.17222824  0.72036378    -0.29400
N356        N  0.24488347  0.16838479  0.67974647     0.14800
C357        C  0.26768758  0.20668941  0.67094266    -0.29400
C358        C  0.30492949  0.24333396  0.83073051    -0.29700
N359        N  0.34577649  0.26044247  0.82202489     0.15300
H360        H  0.29498931  0.22676688  0.86062518     0.18000
C361        C  0.34512570  0.27812346  0.78102665    -0.29700
H362        H  0.37298643  0.29374168  0.76492730     0.18000
H363        H  0.28528342  0.21416752  0.64101737     0.18000
H364        H  0.14854886  0.30141327  0.79261453     0.18000
H365        H  0.20678368  0.14702440  0.73624580     0.18000
C366        C  0.27013612  0.72921574  0.27536347     0.31800
C367        C  0.20956327  0.78033530  0.23427389     0.31800
C368        C  0.22574828  0.70643404  0.26678150    -0.04400
C369        C  0.25693824  0.77193481  0.29942386    -0.05100
C370        C  0.28372268  0.74609710  0.22997762    -0.05000
C371        C  0.19438344  0.73246810  0.24551158    -0.04400
C372        C  0.22587355  0.79841301  0.27856608    -0.05100
C373        C  0.25269741  0.77242502  0.20885198    -0.05000
C374        C  0.15743133  0.70592118  0.24010531    -0.30400
N375        N  0.16578993  0.66474183  0.25767107     0.16100
C376        C  0.20745340  0.66502136  0.27402269    -0.30400
H377        H  0.22341937  0.63691012  0.28975315     0.18000
C378        C  0.21914909  0.83537365  0.30491761    -0.29400
N379        N  0.24547442  0.83162877  0.34103069     0.14800
C380        C  0.26852245  0.79288866  0.33776361    -0.29400
C381        C  0.27029247  0.78403183  0.16868314    -0.29700
N382        N  0.31090589  0.76507264  0.16477814     0.15300
H383        H  0.25453186  0.80436790  0.14388335     0.18000
C384        C  0.31945462  0.74197194  0.20236703    -0.29700
H385        H  0.34935863  0.72372044  0.20956623     0.18000
H386        H  0.29233923  0.78101915  0.36147530     0.18000
H387        H  0.12705236  0.71609237  0.22450995     0.18000
H388        H  0.19692855  0.86272096  0.29796749     0.18000
N389        N  0.05500527  0.94113356  0.05932534    -0.04300
N390        N  0.08443271  0.91050134  0.06981318    -0.56400
N391        N  0.95251912  0.96798647  0.08812110    -0.04000
N392        N  0.91947247  0.96014429  0.11520750    -0.58500
N393        N  0.95443852  0.93693594  0.05779427    -0.03600
N394        N  0.92282959  0.90733273  0.06337036    -0.56400
N395        N  0.05325444  0.97224373  0.08963035    -0.03200
N396        N  0.08138460  0.96320485  0.12140737    -0.58900
C397        C  0.10113888  0.92503633  0.10819428     0.97900
C398        C  0.90110491  0.92262618  0.09881769     0.97700
N399        N  0.94507739  0.10254207  0.05586575    -0.04500
N400        N  0.91065580  0.12877520  0.06219471    -0.57000
N401        N  0.04854112  0.07764918  0.08637770    -0.02600
N402        N  0.08172636  0.08588517  0.11309940    -0.58200
N403        N  0.04644973  0.10829308  0.05549848    -0.04500
N404        N  0.07820637  0.13797381  0.06045613    -0.57200
N405        N  0.94723533  0.07192961  0.08669268    -0.02200
N406        N  0.91431159  0.07650057  0.11453498    -0.58300
Mn407      Mn  0.00056576  0.02269778  0.08922367     1.18400
C408        C  0.89156048  0.11159736  0.09850741     1.00000
C409        C  0.10004917  0.12322702  0.09613392     1.00600
N410        N  0.95475412  0.93522125  0.95606624    -0.04500
N411        N  0.92359718  0.90503802  0.95040536    -0.60800
N412        N  0.05409081  0.97095210  0.92513775    -0.03300
N413        N  0.08561564  0.96374238  0.89616491    -0.61500
N414        N  0.05574782  0.94082132  0.95644608    -0.04000
N415        N  0.08836648  0.91262183  0.94953348    -0.61100
N416        N  0.95295661  0.96569668  0.92510559    -0.02900
N417        N  0.92055250  0.95696386  0.89763604    -0.61800
Mn418      Mn  0.00525526  0.93728065  0.00733161     1.10700
C419        C  0.90231574  0.91944217  0.91424940     1.01200
C420        C  0.10709927  0.92772064  0.91226190     1.01300
N421        N  0.04607786  0.10716670  0.95322057    -0.04000
N422        N  0.07703280  0.13732774  0.94643922    -0.59400
N423        N  0.94711483  0.06992691  0.92307565    -0.03300
N424        N  0.91530218  0.07501385  0.89406308    -0.56100
N425        N  0.94506926  0.10143074  0.95298098    -0.04700
N426        N  0.91183905  0.12870635  0.94485537    -0.59000
N427        N  0.04805752  0.07563655  0.92333933    -0.03600
N428        N  0.08036187  0.08362943  0.89546711    -0.56200
Mn429      Mn  0.99548329  0.10649664  0.00446451     1.20200
Mn430      Mn  0.00062934  0.02052761  0.92266794     1.10100
Cl431      Cl  0.00067112  0.02179426  0.00593968    -0.84100
C432        C  0.09831200  0.12178297  0.91075425     0.98200
C433        C  0.89326104  0.11134816  0.90844990     0.98000
N434        N  0.45447336  0.46039912  0.42524461    -0.04300
N435        N  0.44967610  0.42609498  0.39856663    -0.56400
N436        N  0.41825587  0.56289125  0.44996816    -0.04000
N437        N  0.38874794  0.59382560  0.44059397    -0.58500
N438        N  0.44976083  0.56263795  0.42036869    -0.03600
N439        N  0.44259617  0.59338013  0.39033123    -0.56400
N440        N  0.42309198  0.46051767  0.45490985    -0.03200
N441        N  0.39640270  0.42626493  0.44927708    -0.58900
C442        C  0.41373028  0.40479525  0.41445363     0.97900
C443        C  0.40488784  0.61288864  0.40377790     0.97700
N444        N  0.44395963  0.56922055  0.58451808    -0.04500
N445        N  0.43253754  0.60047758  0.61283103    -0.57000
N446        N  0.42053418  0.46451501  0.55606209    -0.02600
N447        N  0.39461850  0.42967453  0.56173738    -0.58200
N448        N  0.45011713  0.46676293  0.58740633    -0.04500
N449        N  0.44480278  0.43349591  0.61535154    -0.57200
N450        N  0.41465682  0.56662350  0.55289449    -0.02200
N451        N  0.38280299  0.59596853  0.55897758    -0.58300
Mn452      Mn  0.41771546  0.51382912  0.50341544     1.18400
C453        C  0.39474641  0.61726838  0.59601971     1.00000
C454        C  0.41050173  0.41046397  0.59840638     1.00600
N455        N  0.55226161  0.56814073  0.42211320    -0.04500
N456        N  0.55987843  0.59683625  0.39022948    -0.60800
N457        N  0.58751150  0.46983117  0.45845207    -0.03300
N458        N  0.61686658  0.43752530  0.45450288    -0.61500
N459        N  0.55711014  0.46631898  0.42801564    -0.04000
N460        N  0.56491619  0.43165389  0.40270579    -0.61100
N461        N  0.58222581  0.57197226  0.45297546    -0.02900
N462        N  0.61108320  0.60324348  0.44241495    -0.61800
Mn463      Mn  0.50341518  0.51429795  0.42260401     1.10700
C464        C  0.59619915  0.61894392  0.40358058     1.01200
C465        C  0.60181329  0.41385269  0.42000054     1.01300
N466        N  0.55345069  0.47260172  0.58975765    -0.04000
N467        N  0.55991212  0.43889433  0.61696967    -0.59400
N468        N  0.57911727  0.57616122  0.55700025    -0.03300
N469        N  0.60747307  0.60830537  0.56585727    -0.56100
N470        N  0.54779598  0.57498320  0.58685549    -0.04700
N471        N  0.55420963  0.60634574  0.61643645    -0.59000
N472        N  0.58490706  0.47396359  0.56006285    -0.03600
N473        N  0.61339136  0.44126773  0.56626763    -0.56200
Mn474      Mn  0.49882061  0.52104820  0.58872965     1.20200
Mn475      Mn  0.58495549  0.52348352  0.50721411     1.10100
Cl476      Cl  0.50125300  0.51853350  0.50554246    -0.84100
C477        C  0.59728974  0.41982858  0.60170211     0.98200
C478        C  0.59111779  0.62728611  0.60257124     0.98000
C479        C  0.12221404  0.89513574  0.13823366    -0.16700
C480        C  0.13817314  0.86803737  0.16265187     0.07400
C481        C  0.15782032  0.83565534  0.18978570     0.09200
C482        C  0.17826133  0.80908440  0.21124637    -0.17500
C483        C  0.30271957  0.70246628  0.29847532    -0.16700
C484        C  0.32829412  0.68262652  0.32116439     0.07400
C485        C  0.35625949  0.66025618  0.35025106     0.09200
C486        C  0.37887039  0.63990528  0.37547209    -0.17500
C487        C  0.30859254  0.30408892  0.68777652    -0.16700
C488        C  0.33357138  0.32478363  0.66499034     0.07400
C489        C  0.36308790  0.35161631  0.64130443     0.09200
C490        C  0.38656642  0.37717181  0.62194304    -0.17500
C491        C  0.12997769  0.14726483  0.88694579    -0.16700
C492        C  0.15493516  0.16919198  0.86532501     0.07400
C493        C  0.18222845  0.19469440  0.83797635     0.09200
C494        C  0.20453651  0.21557617  0.81279642    -0.17500
C495        C  0.85970241  0.13511760  0.12404980    -0.16700
C496        C  0.83556477  0.15466392  0.14863059     0.07400
C497        C  0.80981422  0.17783838  0.17933832     0.09200
C498        C  0.78860191  0.19870272  0.20548689    -0.17500
C499        C  0.62700048  0.38089331  0.39767793    -0.16700
C500        C  0.64620516  0.35517515  0.37448812     0.07400
C501        C  0.66748991  0.32750736  0.34424634     0.09200
C502        C  0.68658385  0.30492447  0.31801808    -0.17500
C503        C  0.69629476  0.70624403  0.71364943    -0.16700
C504        C  0.67189940  0.68796245  0.68847003     0.07400
C505        C  0.64285636  0.66891779  0.65800644     0.09200
C506        C  0.61854070  0.65164880  0.63205783    -0.17500
C507        C  0.80088430  0.81590738  0.82052141    -0.16700
C508        C  0.82232525  0.84029089  0.84329130     0.07400
C509        C  0.84812729  0.86872072  0.86929809     0.09200
C510        C  0.87179872  0.89243770  0.89051766    -0.17500
C511        C  0.38460014  0.24217252  0.89008014    -0.14600
C512        C  0.38405189  0.26139759  0.85024257    -0.29800
H513        H  0.35541977  0.22518737  0.90208230     0.14400
H514        H  0.41307766  0.27957163  0.83925819     0.15000
C515        C  0.61863691  0.25845655  0.15113970    -0.14600
C516        C  0.62036426  0.23901108  0.11139227    -0.29800
H517        H  0.58981648  0.27826675  0.15961044     0.14400
H518        H  0.64965810  0.22080376  0.10163431     0.15000
C519        C  0.59499740  0.74060274  0.88136190    -0.14600
C520        C  0.63537346  0.75944585  0.88418269    -0.29800
H521        H  0.58493127  0.72481653  0.85104500     0.14400
H522        H  0.64386505  0.77730432  0.91397552     0.15000
C523        C  0.37481686  0.74371042  0.12040771    -0.14600
C524        C  0.33926230  0.76991761  0.12688514    -0.29800
H525        H  0.38306901  0.71843715  0.14449872     0.14400
H526        H  0.33145462  0.79551440  0.10283934     0.15000
C527        C  0.86329673  0.13582032  0.88132348    -0.16700
C528        C  0.84015517  0.15680023  0.85681815     0.07400
C529        C  0.81453190  0.18139614  0.82690783     0.09200
C530        C  0.79276203  0.20188195  0.80082093    -0.17500
C531        C  0.61821607  0.38183871  0.62120106    -0.16700
C532        C  0.63772892  0.35110777  0.63763236     0.07400
C533        C  0.66257822  0.31761727  0.65858023     0.09200
C534        C  0.68517303  0.29244354  0.67955309    -0.17500
C535        C  0.61685867  0.25149458  0.84632656    -0.14600
C536        C  0.61809633  0.23302913  0.88654877    -0.29800
H537        H  0.58806069  0.27087672  0.83691362     0.14400
H538        H  0.64713621  0.21475501  0.89688827     0.15000
C539        C  0.10651670  0.38232214  0.76012595    -0.14600
C540        C  0.14555735  0.38161590  0.73884517    -0.29800
H541        H  0.09764411  0.35468544  0.78134007     0.14400
H542        H  0.15299733  0.40844586  0.71598253     0.15000
C543        C  0.87258872  0.61238321  0.74011900    -0.14600
C544        C  0.87245866  0.65108379  0.76278337    -0.29800
H545        H  0.84343822  0.60268312  0.72194278     0.14400
H546        H  0.90124417  0.65929187  0.78236905     0.15000
C547        C  0.87929438  0.37874689  0.75926413    -0.14600
C548        C  0.84198649  0.37541808  0.73552046    -0.29800
H549        H  0.88843399  0.35185109  0.78124712     0.14400
H550        H  0.83419990  0.40188374  0.71237563     0.15000
C551        C  0.18959208  0.81451188  0.81147218    -0.16700
C552        C  0.17236771  0.84082653  0.83566847     0.07400
C553        C  0.15239087  0.87282931  0.86270602     0.09200
C554        C  0.13345547  0.89933849  0.88539364    -0.17500
C555        C  0.36418163  0.64321786  0.62114454    -0.16700
C556        C  0.33714197  0.66332936  0.64221120     0.07400
C557        C  0.30579529  0.68649382  0.66754907     0.09200
C558        C  0.28117585  0.70727092  0.69078868    -0.17500
C559        C  0.36442267  0.76807547  0.89165276    -0.14600
C560        C  0.36042186  0.74575979  0.85344604    -0.29800
H561        H  0.33830132  0.79045998  0.90196092     0.14400
H562        H  0.38612571  0.72225632  0.84424705     0.15000
C563        C  0.10718319  0.61418872  0.73275230    -0.14600
C564        C  0.10873380  0.65359893  0.75411700    -0.29800
H565        H  0.13550876  0.60354618  0.71372739     0.14400
H566        H  0.08116609  0.66257975  0.77512675     0.15000
C567        C  0.75618772  0.09660046  0.37678867    -0.14600
C568        C  0.73632490  0.13675488  0.37793259    -0.29800
H569        H  0.77338609  0.08591619  0.34745094     0.14400
H570        H  0.71712985  0.14545560  0.40679865     0.15000
C571        C  0.74655087  0.87873311  0.65404028    -0.14600
C572        C  0.72321963  0.87673922  0.61648275    -0.29800
H573        H  0.76786425  0.90736816  0.65953564     0.14400
H574        H  0.70268769  0.84787915  0.60996877     0.15000
C575        C  0.73567294  0.11306671  0.60088009    -0.14600
C576        C  0.75283026  0.11572059  0.64144510    -0.29800
H577        H  0.71968273  0.14209583  0.58677195     0.14400
H578        H  0.77110189  0.08730317  0.65419726     0.15000
C579        C  0.22911363  0.90167018  0.37968562    -0.14600
C580        C  0.25017256  0.86215458  0.37740052    -0.29800
H581        H  0.20866973  0.91258807  0.35260249     0.14400
H582        H  0.27253666  0.85303235  0.40374695     0.15000
C583        C  0.23890616  0.13011416  0.65146662    -0.14600
C584        C  0.26127501  0.12531072  0.61366482    -0.29800
H585        H  0.21491876  0.10482230  0.66074523     0.14400
H586        H  0.28453215  0.15081045  0.60356325     0.15000
C587        C  0.24978387  0.88796313  0.60723240    -0.14600
C588        C  0.22926459  0.88662348  0.64639520    -0.29800
H589        H  0.26778582  0.85890623  0.59585468     0.14400
H590        H  0.20983713  0.91534632  0.65650369     0.15000
C591        C  0.62389431  0.64213982  0.37317387    -0.16700
C592        C  0.64657039  0.65914115  0.34545393     0.07400
C593        C  0.67269119  0.67873222  0.31254220     0.09200
C594        C  0.69502566  0.69794685  0.28597859    -0.17500
C595        C  0.79875194  0.81244645  0.18284503    -0.16700
C596        C  0.82019777  0.83924908  0.16296031     0.07400
C597        C  0.84600280  0.87075183  0.14085343     0.09200
C598        C  0.86993433  0.89612188  0.12199085    -0.17500
C599        C  0.60062008  0.72841038  0.11218976    -0.14600
C600        C  0.63848906  0.75182231  0.11257796    -0.29800
H601        H  0.59218450  0.70742014  0.13992020     0.14400
H602        H  0.64551346  0.77391123  0.08514302     0.15000
C603        C  0.74990523  0.86728082  0.35115352    -0.14600
C604        C  0.72583347  0.86650945  0.38829509    -0.29800
H605        H  0.77203757  0.89529952  0.34557693     0.14400
H606        H  0.70464832  0.83822013  0.39539024     0.15000
C607        C  0.09705867  0.62467466  0.24071069    -0.14600
C608        C  0.13721634  0.62602304  0.25952820    -0.29800
H609        H  0.08411490  0.65435837  0.22492573     0.14400
H610        H  0.14888118  0.59665013  0.27698928     0.15000
C611        C  0.88583477  0.37320926  0.23508684    -0.14600
C612        C  0.84851642  0.37266595  0.25908137    -0.29800
H613        H  0.89502453  0.34416403  0.21596364     0.21600
H614        H  0.84113919  0.40135515  0.27962522     0.15000
C615        C  0.86912360  0.60470617  0.24966113    -0.14600
C616        C  0.86907283  0.64469327  0.22948497    -0.29800
H617        H  0.84000780  0.59346876  0.26712208     0.14400
H618        H  0.89787388  0.65432778  0.21043035     0.15000
C619        C  0.38835161  0.37434025  0.38885671    -0.16700
C620        C  0.36447031  0.35204551  0.36642326     0.07400
C621        C  0.33534210  0.32889182  0.33888986     0.09200
C622        C  0.31109475  0.31010081  0.31390328    -0.17500
C623        C  0.20953189  0.21895565  0.18865289    -0.16700
C624        C  0.18714288  0.19730809  0.16415738     0.07400
C625        C  0.15904080  0.17107693  0.13821533     0.09200
C626        C  0.13307706  0.14879893  0.11811761    -0.17500
C627        C  0.38756835  0.24654356  0.11144768    -0.14600
C628        C  0.38743309  0.26712151  0.15057140    -0.29800
H629        H  0.35879326  0.22813190  0.10075871     0.14400
H630        H  0.41614712  0.28641847  0.16033794     0.15000
C631        C  0.23807786  0.13827301  0.35301331    -0.14600
C632        C  0.25946349  0.13333292  0.39133489    -0.29800
H633        H  0.21447534  0.11290566  0.34312357     0.14400
H634        H  0.28199887  0.15908897  0.40229148     0.15000
C635        C  0.15172048  0.38911428  0.25217766    -0.14600
C636        C  0.11319413  0.38832184  0.23016010    -0.29800
H637        H  0.15851537  0.41712441  0.27374776     0.14400
H638        H  0.10490900  0.35951214  0.21037913     0.15000
loop_ 
_geom_bond_atom_site_label_1 
_geom_bond_atom_site_label_2 
_geom_bond_distance 
_geom_bond_site_symmetry_2 
_ccdc_geom_bond_type 
C1            C3   1.534       .  S
C1            C5   1.530       .  S
C1            C4   1.532       .  S
C1          C623   1.461       .  S
C2            C6   1.538       .  S
C2            C8   1.533       .  S
C2            C7   1.535       .  S
C2          C622   1.459       .  S
C3           C11   1.377       .  A
C3            C6   1.390       .  A
C4           C15   1.377       .  A
C4            C7   1.387       .  A
C5           C19   1.374       .  A
C5            C8   1.387       .  A
C6            C9   1.380       .  A
C7           C13   1.379       .  A
C8           C16   1.378       .  A
C9           N10   1.362       .  A
C9           H22   1.082       .  S
N10          C11   1.365       .  A
N10         C635   1.448       .  S
C11          H12   1.081       .  S
C13          N14   1.365       .  A
C13          H23   1.081       .  S
N14          C15   1.359       .  A
N14         C631   1.445       .  S
C15          H21   1.083       .  S
C16          N17   1.360       .  A
C16          H18   1.083       .  S
N17          C19   1.364       .  A
N17         C628   1.444       .  S
C19          H20   1.080       .  S
N24          C29   1.357       .  A
N24          C28   1.355   1_655  A
N24          H56   1.037       .  S
N25          C32   1.355       .  A
N25          C33   1.355       .  A
N26          C31   1.356       .  A
N26          C30   1.355   1_655  A
N26          H57   1.039       .  S
N27          C34   1.353       .  A
N27          C35   1.352       .  A
C28          C36   1.388       .  A
C28          C44   1.418       .  A
C29          C45   1.417       .  A
C29          C37   1.386       .  A
C30          C38   1.387       .  A
C30          C47   1.416       .  A
C31          C46   1.420       .  A
C31          C39   1.387       .  A
C32          C44   1.418       .  A
C32          C40   1.386       .  A
C33          C47   1.420       .  A
C33          C41   1.386       .  A
C34          C42   1.387       .  A
C34          C45   1.417       .  A
C35          C43   1.386       .  A
C35          C46   1.413       .  A
C36          C37   1.375   1_455  A
C36          H48   1.082       .  S
C37          H49   1.082       .  S
C38          C39   1.377   1_455  A
C38          H50   1.082       .  S
C39          H51   1.082       .  S
C40          C41   1.375       .  A
C40          H52   1.082       .  S
C41          H53   1.082       .  S
C42          C43   1.373       .  A
C42          H54   1.082       .  S
C43          H55   1.082       .  S
C44         C636   1.497       .  S
C45         C611   1.499       .  S
C46         C615   1.495       .  S
C47         C607   1.500       .  S
C58          C60   1.529       .  S
C58          C62   1.528       .  S
C58          C61   1.527       .  S
C58         C595   1.454       .  S
C59          C63   1.541       .  S
C59          C65   1.543       .  S
C59          C64   1.538       .  S
C59         C594   1.461       .  S
C60          C68   1.373       .  A
C60          C63   1.390       .  A
C61          C72   1.374       .  A
C61          C64   1.385       .  A
C62          C76   1.374       .  A
C62          C65   1.389       .  A
C63          C66   1.382       .  A
C64          C70   1.384       .  A
C65          C73   1.385       .  A
C66          N67   1.366       .  A
C66          H79   1.081       .  S
N67          C68   1.358       .  A
N67         C616   1.444       .  S
C68          H69   1.083       .  S
C70          N71   1.364       .  A
C70          H80   1.081       .  S
N71          C72   1.358       .  A
N71         C603   1.444       .  S
C72          H78   1.083       .  S
C73          N74   1.368       .  A
C73          H75   1.081       .  S
N74          C76   1.357       .  A
N74         C600   1.447       .  S
C76          H77   1.083       .  S
N81          C86   1.356       .  A
N81          C85   1.358       .  A
N81         H113   1.039       .  S
N82          C89   1.352   1_545  A
N82          C90   1.355       .  A
N83          C88   1.353       .  A
N83          C87   1.355       .  A
N83         H114   1.038       .  S
N84          C91   1.355   1_545  A
N84          C92   1.356       .  A
C85          C93   1.387       .  A
C85         C101   1.423       .  A
C86         C102   1.419       .  A
C86          C94   1.387       .  A
C87          C95   1.386       .  A
C87         C104   1.414       .  A
C88         C103   1.415       .  A
C88          C96   1.388       .  A
C89         C101   1.414       .  A
C89          C97   1.386       .  A
C90         C104   1.417       .  A
C90          C98   1.386       .  A
C91          C99   1.387       .  A
C91         C102   1.422       .  A
C92         C100   1.385       .  A
C92         C103   1.419       .  A
C93          C94   1.376       .  A
C93         H105   1.082       .  S
C94         H106   1.082       .  S
C95          C96   1.373       .  A
C95         H107   1.082       .  S
C96         H108   1.083       .  S
C97          C98   1.372   1_565  A
C97         H109   1.082       .  S
C98         H110   1.081       .  S
C99         C100   1.375   1_565  A
C99         H111   1.082       .  S
C100        H112   1.082       .  S
C101        C579   1.498       .  S
C102        C587   1.500       .  S
C103        C584   1.493       .  S
C104        C632   1.496       .  S
N115        C120   1.353       .  A
N115        C119   1.354   1_565  A
N115        H147   1.041       .  S
N116        C123   1.354       .  A
N116        C124   1.352       .  A
N117        C122   1.355       .  A
N117        C121   1.357   1_565  A
N117        H148   1.041       .  S
N118        C125   1.356       .  A
N118        C126   1.356       .  A
C119        C127   1.386       .  A
C119        C135   1.413       .  A
C120        C136   1.418       .  A
C120        C128   1.388       .  A
C121        C129   1.388       .  A
C121        C138   1.422       .  A
C122        C137   1.420       .  A
C122        C130   1.386       .  A
C123        C135   1.417       .  A
C123        C131   1.386       .  A
C124        C138   1.414       .  A
C124        C132   1.386       .  A
C125        C133   1.385       .  A
C125        C136   1.416       .  A
C126        C134   1.387       .  A
C126        C137   1.418       .  A
C127        C128   1.375   1_545  A
C127        H139   1.082       .  S
C128        H140   1.082       .  S
C129        C130   1.379   1_545  A
C129        H141   1.082       .  S
C130        H142   1.082       .  S
C131        C132   1.372       .  A
C131        H143   1.082       .  S
C132        H144   1.082       .  S
C133        C134   1.372       .  A
C133        H145   1.082       .  S
C134        H146   1.082       .  S
C135        C567   1.497       .  S
C136        C604   1.499       .  S
C137        C572   1.500       .  S
C138        C575   1.498       .  S
C149        C151   1.537       .  S
C149        C153   1.534       .  S
C149        C152   1.532       .  S
C149        C551   1.458       .  S
C150        C154   1.544       .  S
C150        C156   1.539       .  S
C150        C155   1.540       .  S
C150        C558   1.463       .  S
C151        C159   1.379       .  A
C151        C154   1.391       .  A
C152        C163   1.377       .  A
C152        C155   1.387       .  A
C153        C167   1.382       .  A
C153        C156   1.386       .  A
C154        C157   1.385       .  A
C155        C161   1.384       .  A
C156        C164   1.381       .  A
C157        N158   1.368       .  A
C157        H170   1.081       .  S
N158        C159   1.361       .  A
N158        C564   1.452       .  S
C159        H160   1.083       .  S
C161        N162   1.366       .  A
C161        H171   1.081       .  S
N162        C163   1.359       .  A
N162        C588   1.448       .  S
C163        H169   1.083       .  S
C164        N165   1.362       .  A
C164        H166   1.082       .  S
N165        C167   1.365       .  A
N165        C560   1.450       .  S
C167        H168   1.081       .  S
N172        C177   1.358       .  A
N172        C176   1.356       .  A
N172        H204   1.040       .  S
N173        C180   1.358   1_655  A
N173        C181   1.357       .  A
N174        C179   1.359       .  A
N174        C178   1.356       .  A
N174        H205   1.039       .  S
N175        C182   1.355   1_655  A
N175        C183   1.354       .  A
C176        C184   1.387       .  A
C176        C192   1.419       .  A
C177        C193   1.421       .  A
C177        C185   1.387       .  A
C178        C186   1.388       .  A
C178        C195   1.422       .  A
C179        C194   1.422       .  A
C179        C187   1.386       .  A
C180        C192   1.423       .  A
C180        C188   1.386       .  A
C181        C195   1.424       .  A
C181        C189   1.386       .  A
C182        C190   1.386       .  A
C182        C193   1.416       .  A
C183        C191   1.387       .  A
C183        C194   1.416       .  A
C184        C185   1.375       .  A
C184        H196   1.082       .  S
C185        H197   1.082       .  S
C186        C187   1.377       .  A
C186        H198   1.082       .  S
C187        H199   1.082       .  S
C188        C189   1.377   1_455  A
C188        H200   1.082       .  S
C189        H201   1.082       .  S
C190        C191   1.371   1_455  A
C190        H202   1.082       .  S
C191        H203   1.082       .  S
C192        C563   1.504       .  S
C193        C539   1.502       .  S
C194        C547   1.500       .  S
C195        C543   1.504       .  S
C206        C208   1.536       .  S
C206        C210   1.538       .  S
C206        C209   1.533       .  S
C206        C534   1.463       .  S
C207        C211   1.537       .  S
C207        C213   1.535       .  S
C207        C212   1.533       .  S
C207        C530   1.463       .  S
C208        C216   1.379       .  A
C208        C211   1.388       .  A
C209        C220   1.377       .  A
C209        C212   1.387       .  A
C210        C224   1.381       .  A
C210        C213   1.391       .  A
C211        C214   1.382       .  A
C212        C218   1.378       .  A
C213        C221   1.377       .  A
C214        N215   1.366       .  A
C214        H227   1.081       .  S
N215        C216   1.360       .  A
N215        C548   1.449       .  S
C216        H217   1.083       .  S
C218        N219   1.364       .  A
C218        H228   1.081       .  S
N219        C220   1.359       .  A
N219        C535   1.445       .  S
C220        H226   1.083       .  S
C221        N222   1.359       .  A
C221        H223   1.083       .  S
N222        C224   1.367       .  A
N222        C576   1.448       .  S
C224        H225   1.081       .  S
N229        C234   1.356       .  A
N229        C233   1.358   1_556  A
N229        H261   1.040       .  S
N230        C237   1.354       .  A
N230        C238   1.354       .  A
N231        C236   1.356   1_554  A
N231        C235   1.358       .  A
N231        H262   1.039       .  S
N232        C239   1.357       .  A
N232        C240   1.358       .  A
C233        C241   1.386       .  A
C233        C249   1.420       .  A
C234        C250   1.423       .  A
C234        C242   1.388       .  A
C235        C243   1.387       .  A
C235        C252   1.422       .  A
C236        C251   1.421       .  A
C236        C244   1.388       .  A
C237        C249   1.414       .  A
C237        C245   1.387       .  A
C238        C252   1.415       .  A
C238        C246   1.387       .  A
C239        C247   1.386       .  A
C239        C250   1.421       .  A
C240        C248   1.386       .  A
C240        C251   1.423       .  A
C241        C242   1.377   1_554  A
C241        H253   1.082       .  S
C242        H254   1.082       .  S
C243        C244   1.376   1_554  A
C243        H255   1.082       .  S
C244        H256   1.082       .  S
C245        C246   1.369       .  A
C245        H257   1.082       .  S
C246        H258   1.082       .  S
C247        C248   1.374       .  A
C247        H259   1.082       .  S
C248        H260   1.082       .  S
C249        C599   1.498       .  S
C250        C519   1.505       .  S
C251        C559   1.503       .  S
C252        C523   1.497       .  S
N263        C268   1.356       .  A
N263        C267   1.354       .  A
N263        H295   1.042       .  S
N264        C271   1.353       .  A
N264        C272   1.355   1_556  A
N265        C270   1.354       .  A
N265        C269   1.353       .  A
N265        H296   1.042       .  S
N266        C273   1.352   1_554  A
N266        C274   1.351       .  A
C267        C275   1.387       .  A
C267        C283   1.418       .  A
C268        C284   1.417       .  A
C268        C276   1.386       .  A
C269        C277   1.387       .  A
C269        C286   1.417       .  A
C270        C285   1.415       .  A
C270        C278   1.386       .  A
C271        C283   1.415       .  A
C271        C279   1.387       .  A
C272        C286   1.414       .  A
C272        C280   1.386       .  A
C273        C281   1.386       .  A
C273        C284   1.411       .  A
C274        C282   1.386       .  A
C274        C285   1.410       .  A
C275        C276   1.379       .  A
C275        H287   1.082       .  S
C276        H288   1.082       .  S
C277        C278   1.377       .  A
C277        H289   1.082       .  S
C278        H290   1.082       .  S
C279        C280   1.372   1_556  A
C279        H291   1.082       .  S
C280        H292   1.082       .  S
C281        C282   1.371   1_556  A
C281        H293   1.082       .  S
C282        H294   1.082       .  S
C283        C536   1.495       .  S
C284        C511   1.494       .  S
C285        C627   1.488       .  S
C286        C516   1.497       .  S
C297        C299   1.542       .  S
C297        C301   1.539       .  S
C297        C300   1.536       .  S
C297        C503   1.458       .  S
C298        C302   1.537       .  S
C298        C304   1.534       .  S
C298        C303   1.534       .  S
C298        C507   1.459       .  S
C299        C307   1.385       .  A
C299        C302   1.390       .  A
C300        C311   1.381       .  A
C300        C303   1.385       .  A
C301        C315   1.385       .  A
C301        C304   1.387       .  A
C302        C305   1.379       .  A
C303        C309   1.380       .  A
C304        C312   1.378       .  A
C305        N306   1.361       .  A
C305        H318   1.083       .  S
N306        C307   1.367       .  A
N306        C544   1.452       .  S
C307        H308   1.081       .  S
C309        N310   1.361       .  A
C309        H319   1.082       .  S
N310        C311   1.364       .  A
N310        C571   1.449       .  S
C311        H317   1.081       .  S
C312        N313   1.360       .  A
C312        H314   1.083       .  S
N313        C315   1.366       .  A
N313        C520   1.449       .  S
C315        H316   1.081       .  S
C320        C322   1.541       .  S
C320        C324   1.542       .  S
C320        C323   1.538       .  S
C320        C498   1.458       .  S
C321        C325   1.528       .  S
C321        C327   1.525       .  S
C321        C326   1.530       .  S
C321        C502   1.454       .  S
C322        C330   1.384       .  A
C322        C325   1.387       .  A
C323        C334   1.380       .  A
C323        C326   1.388       .  A
C324        C338   1.386       .  A
C324        C327   1.388       .  A
C325        C328   1.373       .  A
C326        C332   1.376       .  A
C327        C335   1.370       .  A
C328        N329   1.358       .  A
C328        H341   1.083       .  S
N329        C330   1.366       .  A
N329        C612   1.445       .  S
C330        H331   1.081       .  S
C332        N333   1.360       .  A
C332        H342   1.083       .  S
N333        C334   1.365       .  A
N333        C515   1.445       .  S
C334        H340   1.081       .  S
C335        N336   1.355       .  A
C335        H337   1.083       .  S
N336        C338   1.367       .  A
N336        C568   1.443       .  S
C338        H339   1.081       .  S
C343        C345   1.536       .  S
C343        C347   1.532       .  S
C343        C346   1.533       .  S
C343        C487   1.457       .  S
C344        C348   1.538       .  S
C344        C350   1.535       .  S
C344        C349   1.535       .  S
C344        C494   1.456       .  S
C345        C353   1.379       .  A
C345        C348   1.388       .  A
C346        C357   1.377       .  A
C346        C349   1.387       .  A
C347        C361   1.377       .  A
C347        C350   1.386       .  A
C348        C351   1.381       .  A
C349        C355   1.379       .  A
C350        C358   1.380       .  A
C351        N352   1.365       .  A
C351        H364   1.081       .  S
N352        C353   1.361       .  A
N352        C540   1.449       .  S
C353        H354   1.083       .  S
C355        N356   1.360       .  A
C355        H365   1.083       .  S
N356        C357   1.365       .  A
N356        C583   1.447       .  S
C357        H363   1.081       .  S
C358        N359   1.366       .  A
C358        H360   1.081       .  S
N359        C361   1.359       .  A
N359        C512   1.446       .  S
C361        H362   1.083       .  S
C366        C368   1.532       .  S
C366        C370   1.530       .  S
C366        C369   1.529       .  S
C366        C483   1.454       .  S
C367        C371   1.543       .  S
C367        C373   1.538       .  S
C367        C372   1.540       .  S
C367        C482   1.461       .  S
C368        C376   1.376       .  A
C368        C371   1.390       .  A
C369        C380   1.375       .  A
C369        C372   1.386       .  A
C370        C384   1.377       .  A
C370        C373   1.386       .  A
C371        C374   1.384       .  A
C372        C378   1.384       .  A
C373        C381   1.381       .  A
C374        N375   1.367       .  A
C374        H387   1.081       .  S
N375        C376   1.359       .  A
N375        C608   1.448       .  S
C376        H377   1.083       .  S
C378        N379   1.366       .  A
C378        H388   1.081       .  S
N379        C380   1.357       .  A
N379        C580   1.446       .  S
C380        H386   1.083       .  S
C381        N382   1.361       .  A
C381        H383   1.082       .  S
N382        C384   1.364       .  A
N382        C524   1.448       .  S
C384        H385   1.081       .  S
N389        N390   1.319       .  A
N389        N395   1.315       .  A
N389       Mn418   2.194       .  S
N390        C397   1.350       .  A
N391        N393   1.314       .  A
N391        N392   1.319       .  A
N391       Mn407   2.192   1_665  S
N392        C398   1.351       .  A
N393        N394   1.316       .  A
N393       Mn418   2.177   1_655  S
N394        C398   1.347       .  A
N395        N396   1.320       .  A
N395       Mn407   2.198   1_565  S
N396        C397   1.352       .  A
C397        C479   1.432       .  S
C398        C598   1.421       .  S
N399        N405   1.314       .  A
N399        N400   1.320       .  A
N399       Mn429   2.192       .  S
N400        C408   1.351       .  A
N401        N402   1.320       .  A
N401        N403   1.316       .  A
N401       Mn407   2.197       .  S
N402        C409   1.351       .  A
N403        N404   1.319       .  A
N403       Mn429   2.197   1_455  S
N404        C409   1.349       .  A
N405        N406   1.317       .  A
N405       Mn407   2.189   1_655  S
N406        C408   1.348       .  A
Mn407      Cl431   2.543       .  S
C408        C495   1.427       .  S
C409        C626   1.429       .  S
N410        N411   1.319       .  A
N410        N416   1.314       .  A
N410       Mn418   2.192   1_656  S
N411        C419   1.350       .  A
N412        N414   1.314       .  A
N412        N413   1.319       .  A
N412       Mn430   2.198   1_565  S
N413        C420   1.352       .  A
N414        N415   1.317       .  A
N414       Mn418   2.182   1_556  S
N415        C420   1.349       .  A
N416        N417   1.319       .  A
N416       Mn430   2.188   1_665  S
N417        C419   1.350       .  A
Mn418      Cl431   2.534   1_565  S
C419        C510   1.428       .  S
C420        C554   1.426       .  S
N421        N422   1.318       .  A
N421        N427   1.315       .  A
N421       Mn429   2.190   1_456  S
N422        C432   1.349       .  A
N423        N424   1.319       .  A
N423        N425   1.315       .  A
N423       Mn430   2.195   1_655  S
N424        C433   1.350       .  A
N425        N426   1.320       .  A
N425       Mn429   2.199   1_556  S
N426        C433   1.351       .  A
N427        N428   1.318       .  A
N427       Mn430   2.189       .  S
N428        C432   1.349       .  A
Mn429      Cl431   2.541   1_655  S
Mn430      Cl431   2.543   1_556  S
C432        C491   1.424       .  S
C433        C527   1.431       .  S
N434        N435   1.320       .  A
N434        N440   1.313       .  A
N434       Mn463   2.193       .  S
N435        C442   1.352       .  A
N436        N438   1.314       .  A
N436        N437   1.319       .  A
N436       Mn452   2.194       .  S
N437        C443   1.351       .  A
N438        N439   1.317       .  A
N438       Mn463   2.178       .  S
N439        C443   1.347       .  A
N440        N441   1.318       .  A
N440       Mn452   2.185       .  S
N441        C442   1.349       .  A
C442        C619   1.427       .  S
C443        C486   1.422       .  S
N444        N450   1.315       .  A
N444        N445   1.321       .  A
N444       Mn474   2.205       .  S
N445        C453   1.352       .  A
N446        N447   1.317       .  A
N446        N448   1.314       .  A
N446       Mn452   2.183       .  S
N447        C454   1.347       .  A
N448        N449   1.320       .  A
N448       Mn474   2.196       .  S
N449        C454   1.352       .  A
N450        N451   1.318       .  A
N450       Mn452   2.190       .  S
N451        C453   1.349       .  A
Mn452      Cl476   2.537       .  S
C453        C555   1.432       .  S
C454        C490   1.426       .  S
N455        N456   1.318       .  A
N455        N461   1.315       .  A
N455       Mn463   2.189       .  S
N456        C464   1.349       .  A
N457        N459   1.314       .  A
N457        N458   1.320       .  A
N457       Mn475   2.193       .  S
N458        C465   1.350       .  A
N459        N460   1.316       .  A
N459       Mn463   2.177       .  S
N460        C465   1.347       .  A
N461        N462   1.321       .  A
N461       Mn475   2.202       .  S
N462        C464   1.353       .  A
Mn463      Cl476   2.537       .  S
C464        C591   1.430       .  S
C465        C499   1.422       .  S
N466        N467   1.321       .  A
N466        N472   1.316       .  A
N466       Mn474   2.201       .  S
N467        C477   1.351       .  A
N468        N469   1.319       .  A
N468        N470   1.316       .  A
N468       Mn475   2.199       .  S
N469        C478   1.351       .  A
N470        N471   1.318       .  A
N470       Mn474   2.194       .  S
N471        C478   1.350       .  A
N472        N473   1.319       .  A
N472       Mn475   2.190       .  S
N473        C477   1.348       .  A
Mn474      Cl476   2.542       .  S
Mn475      Cl476   2.542       .  S
C477        C531   1.431       .  S
C478        C506   1.427       .  S
C479        C480   1.203       .  T
C480        C481   1.407       .  S
C481        C482   1.202       .  T
C483        C484   1.197       .  T
C484        C485   1.399       .  S
C485        C486   1.197       .  T
C487        C488   1.199       .  T
C488        C489   1.402       .  S
C489        C490   1.200       .  T
C491        C492   1.199       .  T
C492        C493   1.400       .  S
C493        C494   1.199       .  T
C495        C496   1.200       .  T
C496        C497   1.403       .  S
C497        C498   1.200       .  T
C499        C500   1.197       .  T
C500        C501   1.398       .  S
C501        C502   1.197       .  T
C503        C504   1.200       .  T
C504        C505   1.403       .  S
C505        C506   1.200       .  T
C507        C508   1.201       .  T
C508        C509   1.404       .  S
C509        C510   1.201       .  T
C511        C512   1.345       .  D
C511        H513   1.084       .  S
C512        H514   1.087       .  S
C515        C516   1.348       .  D
C515        H517   1.087       .  S
C516        H518   1.083       .  S
C519        C520   1.351       .  D
C519        H521   1.084       .  S
C520        H522   1.087       .  S
C523        C524   1.347       .  D
C523        H525   1.084       .  S
C524        H526   1.087       .  S
C527        C528   1.203       .  T
C528        C529   1.407       .  S
C529        C530   1.202       .  T
C531        C532   1.203       .  T
C532        C533   1.407       .  S
C533        C534   1.203       .  T
C535        C536   1.347       .  D
C535        H537   1.087       .  S
C536        H538   1.083       .  S
C539        C540   1.350       .  D
C539        H541   1.084       .  S
C540        H542   1.087       .  S
C543        C544   1.350       .  D
C543        H545   1.084       .  S
C544        H546   1.087       .  S
C547        C548   1.348       .  D
C547        H549   1.084       .  S
C548        H550   1.087       .  S
C551        C552   1.200       .  T
C552        C553   1.402       .  S
C553        C554   1.200       .  T
C555        C556   1.203       .  T
C556        C557   1.408       .  S
C557        C558   1.203       .  T
C559        C560   1.351       .  D
C559        H561   1.084       .  S
C560        H562   1.087       .  S
C563        C564   1.350       .  D
C563        H565   1.084       .  S
C564        H566   1.087       .  S
C567        C568   1.345       .  D
C567        H569   1.084       .  S
C568        H570   1.087       .  S
C571        C572   1.350       .  D
C571        H573   1.087       .  S
C572        H574   1.084       .  S
C575        C576   1.346       .  D
C575        H577   1.084       .  S
C576        H578   1.087       .  S
C579        C580   1.346       .  D
C579        H581   1.084       .  S
C580        H582   1.087       .  S
C583        C584   1.346       .  D
C583        H585   1.087       .  S
C584        H586   1.083       .  S
C587        C588   1.348       .  D
C587        H589   1.084       .  S
C588        H590   1.087       .  S
C591        C592   1.202       .  T
C592        C593   1.406       .  S
C593        C594   1.202       .  T
C595        C596   1.197       .  T
C596        C597   1.398       .  S
C597        C598   1.197       .  T
C599        C600   1.345       .  D
C599        H601   1.084       .  S
C600        H602   1.087       .  S
C603        C604   1.348       .  D
C603        H605   1.087       .  S
C604        H606   1.084       .  S
C607        C608   1.347       .  D
C607        H609   1.084       .  S
C608        H610   1.087       .  S
C611        C612   1.347       .  D
C611        H613   1.084       .  S
C612        H614   1.087       .  S
C615        C616   1.345       .  D
C615        H617   1.084       .  S
C616        H618   1.087       .  S
C619        C620   1.201       .  T
C620        C621   1.404       .  S
C621        C622   1.201       .  T
C623        C624   1.201       .  T
C624        C625   1.405       .  S
C625        C626   1.201       .  T
C627        C628   1.345       .  D
C627        H629   1.083       .  S
C628        H630   1.087       .  S
C631        C632   1.346       .  D
C631        H633   1.087       .  S
C632        H634   1.084       .  S
C635        C636   1.349       .  D
C635        H637   1.087       .  S
C636        H638   1.083       .  S
