geometry optimzed in LAMMPS
_audit_creation_date              2020-12-01 
_audit_creation_method            'lammps2cif' 
_symmetry_space_group_name_H-M    'P1' 
_symmetry_Int_Tables_number       1 
_symmetry_cell_setting            triclinic 
loop_ 
_symmetry_equiv_pos_as_xyz 
  x,y,z 
_cell_length_a                    42.92762348 
_cell_length_b                    42.89944004129255 
_cell_length_c                    20.445157791177255 
_cell_angle_alpha                 89.06825862280148 
_cell_angle_beta                  89.98063910786558 
_cell_angle_gamma                 90.28274683557179 
loop_ 
_atom_site_label 
_atom_site_type_symbol 
_atom_site_fract_x 
_atom_site_fract_y 
_atom_site_fract_z 
_atom_site_charge 
O1          O  0.39538534  0.69432222  0.25233428    -0.70200
O2          O  0.39720616  0.60759815  0.04501214    -0.70500
O3          O  0.44039607  0.65169546  0.02403536    -0.70300
O4          O  0.35223798  0.64969504  0.27450098    -0.70300
O5          O  0.35231101  0.64318808  0.16934954    -0.70300
O6          O  0.44078746  0.63798911  0.17211269    -0.70300
O7          O  0.39343550  0.59751091  0.19156520    -0.70200
O8          O  0.39960532  0.68344671  0.14937445    -0.70400
V9          V  0.39634027  0.65076002  0.02201225     1.35200
V10         V  0.39653435  0.64070306  0.17254485     1.35200
C11         C  0.39783442  0.70360329  0.19343292     0.79000
C12         C  0.39470790  0.58779543  0.25015696     0.79100
C13         C  0.45557195  0.64419941  0.22379496     0.78900
C14         C  0.33723846  0.64642571  0.22196849     0.78900
O15         O  0.40009335  0.84341215  0.06152540    -0.70200
O16         O  0.39456317  0.93016390  0.01909486    -0.70500
O17         O  0.44110268  0.88985505  0.03785339    -0.70300
O18         O  0.35322606  0.88383801  0.04141686    -0.70300
O19         O  0.35321272  0.89957575  0.14170225    -0.70300
O20         O  0.44191542  0.89493567  0.14337015    -0.70300
O21         O  0.40035736  0.94013325  0.12212839    -0.70200
O22         O  0.39479022  0.85426817  0.16424884    -0.70400
V23         V  0.39722696  0.88691619  0.04181135     1.35200
V24         V  0.39752491  0.89701636  0.14104683     1.35200
C25         C  0.39737694  0.83410788  0.12037799     0.79000
C26         C  0.39798646  0.94995384  0.06382574     0.79100
C27         C  0.45653971  0.89316094  0.08981197     0.78900
C28         C  0.33805060  0.89170111  0.09137859     0.78900
O29         O  0.14278819  0.69496107  0.18713495    -0.70200
O30         O  0.14577172  0.60816328  0.14931303    -0.70500
O31         O  0.10043328  0.65063624  0.16377642    -0.70300
O32         O  0.18824750  0.65300586  0.17127253    -0.70300
O33         O  0.18685953  0.63860367  0.02342787    -0.70300
O34         O  0.09803645  0.64262412  0.01875320    -0.70300
O35         O  0.14031514  0.59774369  0.00291283    -0.70200
O36         O  0.14468392  0.68358778  0.04089985    -0.70400
V37         V  0.14427891  0.65145532  0.16981418     1.35200
V38         V  0.14250734  0.64084599  0.01957959     1.35200
C39         C  0.14396336  0.70397419  0.99574658     0.79000
C40         C  0.14281318  0.58814104  0.19515127     0.79100
C41         C  0.08414620  0.64698733  0.21472452     0.78900
C42         C  0.20269631  0.64587253  0.22306901     0.78900
O43         O  0.14749611  0.84320747  0.12088981    -0.70200
O44         O  0.14262947  0.92956702  0.16125991    -0.70500
O45         O  0.10107721  0.88345719  0.14308140    -0.70300
O46         O  0.18893092  0.88931293  0.14029470    -0.70300
O47         O  0.18777520  0.89491832  0.03455570    -0.70300
O48         O  0.09910507  0.90040682  0.04264788    -0.70300
O49         O  0.14701363  0.94054223  0.05764673    -0.70200
O50         O  0.14004674  0.85489588  0.01843140    -0.70400
V51         V  0.14495703  0.88654479  0.13954981     1.35200
V52         V  0.14349088  0.89752171  0.04010664     1.35200
C53         C  0.14363764  0.83434246  0.06262956     0.79000
C54         C  0.14543903  0.94980262  0.11586800     0.79100
C55         C  0.08492847  0.89172495  0.09422768     0.78900
C56         C  0.20341521  0.89230784  0.08686011     0.78900
O57         O  0.34448022  0.39411515  0.01127503    -0.70200
O58         O  0.43121401  0.39597621  0.22147455    -0.70500
O59         O  0.38888072  0.35089780  0.99266634    -0.70300
O60         O  0.38672240  0.43874225  0.98883070    -0.70300
O61         O  0.39943001  0.43998940  0.09147711    -0.70300
O62         O  0.39708927  0.35104541  0.09753393    -0.70300
O63         O  0.44134799  0.39413229  0.07547498    -0.70200
O64         O  0.35536111  0.39624151  0.11484289    -0.70400
V65         V  0.38799923  0.39492808  0.99308825     1.35200
V66         V  0.39814631  0.39542093  0.09286695     1.35200
C67         C  0.33524678  0.39509191  0.06999416     0.79000
C68         C  0.45103028  0.39461044  0.01716790     0.79100
C69         C  0.39314558  0.33595572  0.04550694     0.78900
C70         C  0.39271920  0.45447056  0.03887436     0.78900
O71         O  0.19517637  0.39436232  0.19521255    -0.70200
O72         O  0.10822086  0.39441226  0.23269938    -0.70500
O73         O  0.15094149  0.35044885  0.21284621    -0.70300
O74         O  0.15190859  0.43865833  0.21638885    -0.70300
O75         O  0.14191709  0.44092428  0.11223742    -0.70300
O76         O  0.14196091  0.35215889  0.10827079    -0.70300
O77         O  0.09869484  0.39628938  0.12842138    -0.70200
O78         O  0.18491437  0.39731054  0.09131684    -0.70400
V79         V  0.15149102  0.39455652  0.21224115     1.35200
V80         V  0.14203789  0.39654462  0.11210415     1.35200
C81         C  0.20477712  0.39602311  0.13667524     0.79000
C82         C  0.08867446  0.39556332  0.18649594     0.79100
C83         C  0.14622196  0.33626540  0.16019657     0.78900
C84         C  0.14650049  0.45480262  0.16546380     0.78900
O85         O  0.34561993  0.13884818  0.06401777    -0.70200
O86         O  0.43197100  0.14339710  0.10705376    -0.70500
O87         O  0.38626490  0.18528708  0.08750769    -0.70300
O88         O  0.39143685  0.09736265  0.08455100    -0.70300
O89         O  0.40011456  0.09907453  0.22984365    -0.70300
O90         O  0.40021740  0.18772611  0.23556747    -0.70300
O91         O  0.44300544  0.14353933  0.25342153    -0.70200
O92         O  0.35722931  0.14400145  0.21109008    -0.70400
V93         V  0.38895771  0.14126427  0.08379712     1.35200
V94         V  0.39990309  0.14346495  0.23444322     1.35200
C95         C  0.33674430  0.14140645  0.25514769     0.79000
C96         C  0.45220066  0.14414955  0.06202842     0.79100
C97         C  0.39309629  0.20162992  0.03755046     0.78900
C98         C  0.39663091  0.08323678  0.03205783     0.78900
O99         O  0.19711328  0.14435768  0.12744703    -0.70200
O100        O  0.11038859  0.14346266  0.08649556    -0.70500
O101        O  0.15321237  0.18770612  0.10963655    -0.70300
O102        O  0.15469021  0.09982663  0.10298929    -0.70300
O103        O  0.14306718  0.09634118  0.20614346    -0.70300
O104        O  0.14241705  0.18525823  0.21326342    -0.70300
O105        O  0.09993631  0.14052634  0.19028725    -0.70200
O106        O  0.18581936  0.14050757  0.23075245    -0.70400
V107        V  0.15362756  0.14373936  0.10865635     1.35200
V108        V  0.14304552  0.14080484  0.20814575     1.35200
C109        C  0.20616648  0.14226476  0.18626988     0.79000
C110        C  0.09039417  0.14167065  0.13196617     0.79100
C111        C  0.14769033  0.20161685  0.16220170     0.78900
C112        C  0.14911519  0.08298224  0.15288578     0.78900
O113        O  0.64717593  0.34367134  0.25631124    -0.70200
O114        O  0.64250025  0.43022084  0.04587815    -0.70500
O115        O  0.60087752  0.38395478  0.02955830    -0.70300
O116        O  0.68866270  0.38996214  0.27388925    -0.70300
O117        O  0.68674095  0.39533616  0.16814307    -0.70300
O118        O  0.59822229  0.40060090  0.17898505    -0.70300
O119        O  0.64609210  0.44087480  0.19199102    -0.70200
O120        O  0.63903685  0.35514021  0.15398824    -0.70400
V121        V  0.64471136  0.38709829  0.02459499     1.35200
V122        V  0.64253688  0.39781557  0.17508491     1.35200
C123        C  0.64294532  0.33467250  0.19823289     0.79000
C124        C  0.64497618  0.45032165  0.25011315     0.79100
C125        C  0.58442067  0.39206252  0.23108948     0.78900
C126        C  0.70273644  0.39293343  0.21997745     0.78900
O127        O  0.64423262  0.19620124  0.06962724    -0.70200
O128        O  0.64604824  0.10992829  0.02706336    -0.70500
O129        O  0.60141233  0.15248537  0.04630594    -0.70300
O130        O  0.68934819  0.15413784  0.04922294    -0.70300
O131        O  0.68903422  0.14115564  0.15221162    -0.70300
O132        O  0.60006719  0.14067747  0.14984929    -0.70300
O133        O  0.64518536  0.09820309  0.13073372    -0.70200
O134        O  0.64468057  0.18373011  0.17293220    -0.70400
V135        V  0.64526444  0.15292971  0.05007101     1.35200
V136        V  0.64466927  0.14117391  0.14944853     1.35200
C137        C  0.64440780  0.20458364  0.12869247     0.79000
C138        C  0.64625445  0.08937977  0.07221880     0.79100
C139        C  0.58561147  0.14682958  0.09718276     0.78900
C140        C  0.70433034  0.14777796  0.10081645     0.78900
O141        O  0.89925143  0.34429781  0.19098035    -0.70200
O142        O  0.89333706  0.43088147  0.14859333    -0.70500
O143        O  0.94004243  0.39068691  0.16685460    -0.70300
O144        O  0.85223134  0.38457979  0.17147162    -0.70300
O145        O  0.85249704  0.40049746  0.02163753    -0.70300
O146        O  0.94110890  0.39561579  0.02240425    -0.70300
O147        O  0.89958262  0.44096815  0.00146630    -0.70200
O148        O  0.89404647  0.35509190  0.04376381    -0.70400
V149        V  0.89620291  0.38772041  0.17130847     1.35200
V150        V  0.89676041  0.39784393  0.02052461     1.35200
C151        C  0.89675425  0.33497382  0.99983684     0.79000
C152        C  0.89679318  0.45072094  0.19317532     0.79100
C153        C  0.95559648  0.39373094  0.21872614     0.78900
C154        C  0.83721447  0.39259509  0.22151991     0.78900
O155        O  0.89710691  0.19475141  0.12956743    -0.70200
O156        O  0.89858130  0.10773067  0.16937453    -0.70500
O157        O  0.94199504  0.15184964  0.15034818    -0.70300
O158        O  0.85383637  0.15016401  0.14977237    -0.70300
O159        O  0.85407131  0.14434429  0.04443317    -0.70300
O160        O  0.94259987  0.13903367  0.04791680    -0.70300
O161        O  0.89514100  0.09849810  0.06550924    -0.70200
O162        O  0.90142048  0.18462865  0.02625355    -0.70400
V163        V  0.89793648  0.15106151  0.14780315     1.35200
V164        V  0.89832035  0.14177596  0.04798564     1.35200
C165        C  0.89950184  0.20443951  0.07093957     0.79000
C166        C  0.89611598  0.08832234  0.12377812     0.79100
C167        C  0.95728392  0.14477279  0.09999338     0.78900
C168        C  0.83890799  0.14731513  0.09702823     0.78900
O169        O  0.69524866  0.64244398  0.00006618    -0.70200
O170        O  0.60855618  0.64480114  0.20975327    -0.70500
O171        O  0.65311529  0.68783022  0.98013867    -0.70300
O172        O  0.65114352  0.59974183  0.97852184    -0.70300
O173        O  0.64323960  0.59811675  0.08337397    -0.70300
O174        O  0.63892493  0.68701362  0.08197996    -0.70300
O175        O  0.59829213  0.64010748  0.06340602    -0.70200
O176        O  0.68409762  0.64498182  0.10340176    -0.70400
V177        V  0.65179120  0.64371019  0.98155584     1.35200
V178        V  0.64135143  0.64261226  0.08111925     1.35200
C179        C  0.70436843  0.64377859  0.05881715     0.79000
C180        C  0.58864202  0.64196528  0.00520793     0.79100
C181        C  0.64586253  0.70260368  0.03078214     0.78900
C182        C  0.64759901  0.58381365  0.03047008     0.78900
O183        O  0.84429316  0.64376122  0.18528677    -0.70200
O184        O  0.93113221  0.64177709  0.22384047    -0.70500
O185        O  0.88893021  0.68670010  0.20450364    -0.70300
O186        O  0.88694445  0.59867871  0.20595742    -0.70300
O187        O  0.90043323  0.59855372  0.10343639    -0.70300
O188        O  0.89512070  0.68709944  0.09902134    -0.70300
O189        O  0.94093165  0.64596163  0.11988598    -0.70200
O190        O  0.85487443  0.63982692  0.08191276    -0.70400
V191        V  0.88789859  0.64268746  0.20291792     1.35200
V192        V  0.89767160  0.64284074  0.10298745     1.35200
C193        C  0.83484561  0.64158392  0.12685201     0.79000
C194        C  0.95082499  0.64450219  0.17804982     0.79100
C195        C  0.89204714  0.70191596  0.15160113     0.78900
C196        C  0.89436546  0.58365193  0.15579698     0.78900
O197        O  0.69614763  0.89316537  0.06234004    -0.70200
O198        O  0.60955428  0.89681528  0.10289955    -0.70500
O199        O  0.65012415  0.85117873  0.08036470    -0.70300
O200        O  0.65554146  0.93917339  0.08597179    -0.70300
O201        O  0.64191034  0.94266463  0.23396991    -0.70300
O202        O  0.64264237  0.85385326  0.22536361    -0.70300
O203        O  0.59924678  0.89745419  0.24894191    -0.70200
O204        O  0.68524537  0.89954961  0.20935845    -0.70400
V205        V  0.65268545  0.89519671  0.08092660     1.35200
V206        V  0.64244875  0.89824596  0.23135981     1.35200
C207        C  0.70541613  0.89637219  0.25380298     0.79000
C208        C  0.58964084  0.89738198  0.05729536     0.79100
C209        C  0.64587292  0.83746177  0.02699278     0.78900
C210        C  0.64913081  0.95605117  0.03659035     0.78900
O211        O  0.84476824  0.89644418  0.12609550    -0.70200
O212        O  0.93130239  0.89548310  0.08398398    -0.70500
O213        O  0.88705089  0.85179480  0.10490135    -0.70300
O214        O  0.88849793  0.93969346  0.10422608    -0.70300
O215        O  0.89933430  0.93962582  0.20789671    -0.70300
O216        O  0.89907625  0.85078924  0.20798935    -0.70300
O217        O  0.94208157  0.89502893  0.18773912    -0.70200
O218        O  0.85627676  0.89468189  0.22947940    -0.70400
V219        V  0.88815336  0.89583007  0.10680633     1.35200
V220        V  0.89899143  0.89511979  0.20628774     1.35200
C221        C  0.83586478  0.89548937  0.18510374     0.79000
C222        C  0.95141674  0.89474552  0.12922651     0.79100
C223        C  0.89286637  0.83618878  0.15626495     0.78900
C224        C  0.89358878  0.95475249  0.15561152     0.78900
C225        C  0.78149862  0.91418036  0.16679182     0.25100
C226        C  0.80248878  0.89545476  0.20222785    -0.23000
C227        C  0.79144635  0.87715898  0.25515543     0.20000
C228        C  0.75992136  0.87767746  0.27251173     0.25100
C229        C  0.73889215  0.89640690  0.23704998    -0.22900
C230        C  0.74998781  0.91469048  0.18407059     0.20000
F231        F  0.73047708  0.93374060  0.15001149    -0.12900
F232        F  0.79164874  0.93266622  0.11652394    -0.15200
F233        F  0.74981353  0.85916421  0.07276071    -0.15200
F234        F  0.81100564  0.85798789  0.28879077    -0.12900
C235        C  0.87535411  0.75335050  0.10564619     0.25100
C236        C  0.89243795  0.73614007  0.15202061    -0.23000
C237        C  0.90954592  0.75183185  0.20002516     0.20000
C238        C  0.90969067  0.78436819  0.20156209     0.25100
C239        C  0.89249521  0.80176194  0.15530613    -0.22900
C240        C  0.87526114  0.78590457  0.10735046     0.20000
F241        F  0.85783908  0.80183925  0.06272514    -0.12900
F242        F  0.85801534  0.73860120  0.05989399    -0.15200
F243        F  0.92719665  0.79880508  0.24747667    -0.15200
F244        F  0.92670238  0.73561072  0.24467567    -0.12900
C245        C  0.62803007  0.75379825  0.07544635     0.25100
C246        C  0.64554846  0.73720884  0.02947515    -0.23000
C247        C  0.66260881  0.75408249  0.98150668     0.20000
C248        C  0.66214280  0.78671418  0.97970116     0.25100
C249        C  0.64486753  0.80311239  0.02597784    -0.22900
C250        C  0.62782799  0.78642863  0.07382924     0.20000
F251        F  0.61058920  0.80180277  0.11860790    -0.12900
F252        F  0.61072960  0.73850040  0.12151360    -0.15200
F253        F  0.67955535  0.80232396  0.18425693    -0.15200
F254        F  0.68040810  0.73907581  0.18713602    -0.12900
C255        C  0.79008922  0.62369195  0.05849173     0.25100
C256        C  0.80133074  0.64155394  0.11067891    -0.23000
C257        C  0.78051105  0.66036856  0.14520745     0.20000
C258        C  0.74902197  0.66139118  0.12772440     0.25100
C259        C  0.73779888  0.64353935  0.07554956    -0.22900
C260        C  0.75859918  0.62470159  0.04105265     0.20000
F261        F  0.74830589  0.60662338  0.24155075    -0.12900
F262        F  0.80945542  0.60462870  0.02534572    -0.15200
F263        F  0.72967270  0.68059210  0.16054443    -0.15200
F264        F  0.79081435  0.67852869  0.19458378    -0.12900
C265        C  0.91031407  0.00750406  0.19552025     0.25100
C266        C  0.89247008  0.98915008  0.15294480    -0.23000
C267        C  0.87430979  0.00395736  0.10439644     0.20000
C268        C  0.87505289  0.03622465  0.09650673     0.25100
C269        C  0.89384544  0.05453323  0.13703330    -0.22900
C270        C  0.91100832  0.04005054  0.18755952     0.20000
F271        F  0.92961772  0.05718471  0.22699862    -0.12900
F272        F  0.92815409  0.99393567  0.24272251    -0.15200
F273        F  0.85726883  0.04961899  0.04892706    -0.15200
F274        F  0.85578956  0.98717318  0.06402394    -0.12900
C275        C  0.88038495  0.49786560  0.12737473     0.25100
C276        C  0.89787858  0.48451168  0.17880463    -0.23000
C277        C  0.91564855  0.50400672  0.21919204     0.20000
C278        C  0.91494593  0.53624254  0.21015885     0.25100
C279        C  0.89684000  0.54960967  0.16014888    -0.22900
C280        C  0.87999625  0.53031115  0.11794509     0.20000
F281        F  0.86195314  0.54294864  0.06996821    -0.12900
F282        F  0.86250430  0.47972627  0.08845440    -0.15200
F283        F  0.93191239  0.55453516  0.25059088    -0.15200
F284        F  0.93371416  0.49184932  0.01774019    -0.12900
C285        C  0.88058005  0.25859725  0.08878253     0.25100
C286        C  0.89952536  0.23797390  0.05418099    -0.23000
C287        C  0.91738676  0.24939517  0.00118021     0.20000
C288        C  0.91626717  0.28091932  0.98301757     0.25100
C289        C  0.89727058  0.30153792  0.01753254    -0.22900
C290        C  0.87943108  0.29011646  0.07057643     0.20000
F291        F  0.86012862  0.30928717  0.10361456    -0.12900
F292        F  0.86236253  0.24805529  0.13883644    -0.15200
F293        F  0.93436597  0.29143091  0.18273284    -0.15200
F294        F  0.93648399  0.23015348  0.96779829    -0.12900
C295        C  0.66801089  0.00459436  0.09026135     0.25100
C296        C  0.64990530  0.99051213  0.04140585    -0.23000
C297        C  0.63171933  0.00961897  0.99981044     0.20000
C298        C  0.63094926  0.04201058  0.00846149     0.25100
C299        C  0.64844713  0.05576451  0.05851729    -0.22900
C300        C  0.66727063  0.03679413  0.09864437     0.20000
F301        F  0.68510830  0.04951107  0.14626864    -0.12900
F302        F  0.68651335  0.98720741  0.13031115    -0.15200
F303        F  0.61182530  0.05964779  0.97032750    -0.15200
F304        F  0.61360837  0.99688220  0.20273743    -0.12900
C305        C  0.75567739  0.13048112  0.14722796     0.25100
C306        C  0.73884828  0.14790400  0.10035148    -0.23000
C307        C  0.75537471  0.16497764  0.05193913     0.20000
C308        C  0.78794868  0.16452919  0.05042364     0.25100
C309        C  0.80460274  0.14726824  0.09746432    -0.22900
C310        C  0.78825617  0.13028728  0.14589489     0.20000
F311        F  0.80387173  0.11285618  0.19107652    -0.12900
F312        F  0.74065229  0.11303776  0.19353476    -0.15200
F313        F  0.80326279  0.18169046  0.25405816    -0.15200
F314        F  0.74007432  0.18255507  0.00653532    -0.12900
C315        C  0.66603182  0.50294195  0.22206267     0.25100
C316        C  0.64719982  0.48406697  0.26283016    -0.23000
C317        C  0.62992503  0.49800335  0.06293852     0.20000
C318        C  0.63070191  0.53048017  0.07051705     0.25100
C319        C  0.64867874  0.54939147  0.02790980    -0.22900
C320        C  0.66675526  0.53517831  0.22944145     0.20000
F321        F  0.68519768  0.55253825  0.18879376    -0.12900
F322        F  0.68389633  0.49013194  0.17477412    -0.15200
F323        F  0.61272762  0.54349856  0.11729782    -0.15200
F324        F  0.61109605  0.48043844  0.10228634    -0.12900
C325        C  0.75347314  0.41073075  0.01541092     0.25100
C326        C  0.73699388  0.39364442  0.21855214    -0.23000
C327        C  0.75347628  0.37636501  0.17246926     0.20000
C328        C  0.78604478  0.37583319  0.17368269     0.25100
C329        C  0.80271243  0.39286503  0.22079884    -0.22900
C330        C  0.78602362  0.41047944  0.01640714     0.20000
F331        F  0.80113875  0.42787232  0.06146339    -0.12900
F332        F  0.73799655  0.42813743  0.05969172    -0.15200
F333        F  0.80117536  0.35812154  0.12944178    -0.15200
F334        F  0.73801301  0.35911865  0.12767759    -0.12900
C335        C  0.66247614  0.24855037  0.19834238     0.25100
C336        C  0.64420495  0.23785751  0.14608984    -0.23000
C337        C  0.62531447  0.25908785  0.11161050     0.20000
C338        C  0.62460461  0.29046728  0.12919613     0.25100
C339        C  0.64282661  0.30121782  0.18161087    -0.22900
C340        C  0.66172757  0.27992327  0.21609716     0.20000
F341        F  0.68023529  0.28963992  0.01567565    -0.12900
F342        F  0.68195385  0.22883002  0.23073940    -0.15200
F343        F  0.60550807  0.31019800  0.09580809    -0.15200
F344        F  0.60694907  0.24930138  0.06183809    -0.12900
C345        C  0.00478423  0.12425805  0.15373429     0.25100
C346        C  0.99138199  0.14236366  0.10355327    -0.23000
C347        C  0.01072457  0.15898170  0.05972262     0.20000
C348        C  0.04319656  0.15829296  0.06752554     0.25100
C349        C  0.05657818  0.14068137  0.11886916    -0.22900
C350        C  0.03704870  0.12325342  0.16111825     0.20000
F351        F  0.04922394  0.10524170  0.20993672    -0.12900
F352        F  0.98651743  0.10751150  0.19582155    -0.15200
F353        F  0.06135376  0.17607362  0.02720767    -0.15200
F354        F  0.99811752  0.17708996  0.01161670    -0.12900
C355        C  0.53220714  0.12980631  0.13598440     0.25100
C356        C  0.55115478  0.14777131  0.09343094    -0.23000
C357        C  0.53691281  0.16590876  0.04388655     0.20000
C358        C  0.50472236  0.16516406  0.03533527     0.25100
C359        C  0.48586362  0.14638620  0.07608793    -0.22900
C360        C  0.49974398  0.12907989  0.12725458     0.20000
F361        F  0.48213710  0.11021987  0.16648150    -0.12900
F362        F  0.54514179  0.11187636  0.18398217    -0.15200
F363        F  0.49191930  0.18292734  0.23687165    -0.15200
F364        F  0.55417220  0.18442794  0.00315674    -0.12900
C365        C  0.28178197  0.12346247  0.02354020     0.25100
C366        C  0.30332611  0.14163176  0.23774643    -0.23000
C367        C  0.29270817  0.15992181  0.18450992     0.20000
C368        C  0.26115809  0.15992779  0.16730246     0.25100
C369        C  0.23962476  0.14177523  0.20318046    -0.22900
C370        C  0.25023271  0.12350489  0.00637947     0.20000
F371        F  0.23018542  0.10496282  0.04076041    -0.12900
F372        F  0.29136925  0.10504236  0.07421700    -0.15200
F373        F  0.25153478  0.17839433  0.11672484    -0.15200
F374        F  0.31271583  0.17860459  0.15032676    -0.12900
C375        C  0.00879014  0.37894279  0.25880113     0.25100
C376        C  0.98974936  0.39578308  0.21510058    -0.23000
C377        C  0.00350970  0.41370421  0.16469942     0.20000
C378        C  0.03574243  0.41415205  0.15680602     0.25100
C379        C  0.05487781  0.39651431  0.19893176    -0.22900
C380        C  0.04122794  0.37920206  0.25061643     0.20000
F381        F  0.05908868  0.36139388  0.04110156    -0.12900
F382        F  0.99592111  0.36105917  0.05720286    -0.15200
F383        F  0.04828411  0.43196104  0.10786178    -0.15200
F384        F  0.98564463  0.43086983  0.12291567    -0.12900
C385        C  0.12933764  0.28498055  0.20801602     0.25100
C386        C  0.14597945  0.30194737  0.15995583    -0.23000
C387        C  0.16335444  0.28590511  0.11336061     0.20000
C388        C  0.16422886  0.25333447  0.11481915     0.25100
C389        C  0.14745787  0.23614809  0.16271373    -0.22900
C390        C  0.12994649  0.25233609  0.20926821     0.20000
F391        F  0.11287394  0.23662101  0.25509547    -0.12900
F392        F  0.11194884  0.30006556  0.25297273    -0.15200
F393        F  0.18200005  0.23865942  0.06990591    -0.15200
F394        F  0.18029842  0.30182759  0.06760693    -0.12900
C395        C  0.49873738  0.41021797  0.20300302     0.25100
C396        C  0.48474979  0.39284079  0.00404457    -0.23000
C397        C  0.50347188  0.37416513  0.04491854     0.20000
C398        C  0.53565478  0.37346114  0.03627170     0.25100
C399        C  0.54999767  0.39150802  0.23647321    -0.22900
C400        C  0.53114548  0.40958835  0.19424147     0.20000
F401        F  0.54409518  0.42756380  0.14609422    -0.12900
F402        F  0.48124244  0.42890861  0.16356344    -0.15200
F403        F  0.55274207  0.35500274  0.07703866    -0.15200
F404        F  0.49053479  0.35629568  0.09332279    -0.12900
C405        C  0.37659930  0.28420060  0.09144079     0.25100
C406        C  0.39378631  0.30171934  0.04540031    -0.23000
C407        C  0.41084464  0.28633839  0.99714806     0.20000
C408        C  0.41069176  0.25383238  0.99470627     0.25100
C409        C  0.39316895  0.23608239  0.04020921    -0.22900
C410        C  0.37616938  0.25162479  0.08879416     0.20000
F411        F  0.35863257  0.23539033  0.13302826    -0.12900
F412        F  0.35937506  0.29867573  0.13755408    -0.15200
F413        F  0.42815449  0.23976609  0.19840930    -0.15200
F414        F  0.42811817  0.30285976  0.95287001    -0.12900
C415        C  0.25917862  0.37762020  0.15668131     0.25100
C416        C  0.23829073  0.39629182  0.12079700    -0.23000
C417        C  0.24947567  0.41439331  0.06764824     0.20000
C418        C  0.28100628  0.41373206  0.05056103     0.25100
C419        C  0.30184690  0.39503648  0.08640278    -0.22900
C420        C  0.29070802  0.37694662  0.13950791     0.20000
F421        F  0.31018903  0.35780697  0.17341710    -0.12900
F422        F  0.24890311  0.35926611  0.20703132    -0.15200
F423        F  0.29133412  0.43201550  0.00013459    -0.15200
F424        F  0.23000979  0.43336952  0.03325909    -0.12900
C425        C  0.13021627  0.99701204  0.17983714     0.25100
C426        C  0.14753679  0.98347436  0.12934297    -0.23000
C427        C  0.16650677  0.00263600  0.08947359     0.20000
C428        C  0.16751621  0.03476621  0.09847829     0.25100
C429        C  0.14959660  0.04859631  0.14772671    -0.22900
C430        C  0.13126616  0.02935475  0.18905159     0.20000
F431        F  0.11330805  0.04192916  0.23641324    -0.12900
F432        F  0.11114905  0.97919227  0.21817028    -0.15200
F433        F  0.18614466  0.05235192  0.05868759    -0.15200
F434        F  0.18433006  0.99020657  0.04165884    -0.12900
C435        C  0.03173699  0.90945485  0.05654008     0.25100
C436        C  0.05043354  0.89116140  0.09873167    -0.23000
C437        C  0.03586799  0.87293693  0.14798061     0.20000
C438        C  0.00367004  0.87375954  0.15631782     0.25100
C439        C  0.98510382  0.89268668  0.11564764    -0.22900
C440        C  0.99927635  0.91020135  0.06500152     0.20000
F441        F  0.98194598  0.92920784  0.02591425    -0.12900
F442        F  0.04489371  0.92757210  0.00888015    -0.15200
F443        F  0.99055342  0.85582515  0.20440256    -0.15200
F444        F  0.05275675  0.85422416  0.18860628    -0.12900
C445        C  0.16086472  0.50859523  0.12559035     0.25100
C446        C  0.14448510  0.48896198  0.16937768    -0.23000
C447        C  0.12634359  0.50212916  0.21875176     0.20000
C448        C  0.12506361  0.53440522  0.22535993     0.25100
C449        C  0.14222273  0.55423562  0.18310578    -0.22900
C450        C  0.15989678  0.54107284  0.13260956     0.20000
F451        F  0.17732798  0.55946659  0.09206985    -0.12900
F452        F  0.17887598  0.49627618  0.07801627    -0.15200
F453        F  0.10691534  0.54627726  0.02327622    -0.15200
F454        F  0.10959411  0.48364274  0.01047843    -0.12900
C455        C  0.03071303  0.63006264  0.25215387     0.25100
C456        C  0.04979304  0.64790051  0.20973652    -0.23000
C457        C  0.03583538  0.66565355  0.15931487     0.20000
C458        C  0.00365242  0.66490564  0.15022041     0.25100
C459        C  0.98460811  0.64638786  0.19122440    -0.22900
C460        C  0.99833124  0.62927768  0.24289246     0.20000
F461        F  0.98061669  0.61067493  0.03250318    -0.12900
F462        F  0.04347793  0.61227739  0.05062221    -0.15200
F463        F  0.99106964  0.68251667  0.10123320    -0.15200
F464        F  0.05338065  0.68384784  0.11849491    -0.12900
C465        C  0.16225062  0.77962954  0.08087953     0.25100
C466        C  0.14354020  0.80092146  0.04595023    -0.23000
C467        C  0.12532617  0.79013733  0.99357588     0.20000
C468        C  0.12577992  0.75867200  0.97659229     0.25100
C469        C  0.14435956  0.73740594  0.01175596    -0.22900
C470        C  0.16268190  0.74816990  0.06387567     0.20000
F471        F  0.18174434  0.72837226  0.09719630    -0.12900
F472        F  0.18077883  0.78939769  0.13039925    -0.15200
F473        F  0.10734778  0.74882736  0.17698860    -0.15200
F474        F  0.10636881  0.80988719  0.95988515    -0.12900
C475        C  0.41785312  0.00273547  0.09063023     0.25100
C476        C  0.39971755  0.98378625  0.04981889    -0.23000
C477        C  0.38245468  0.99776581  0.99876675     0.20000
C478        C  0.38238328  0.03032074  0.99060865     0.25100
C479        C  0.39935752  0.04910234  0.03369485    -0.22900
C480        C  0.41751489  0.03503411  0.08283877     0.20000
F481        F  0.43476779  0.05271393  0.12395707    -0.12900
F482        F  0.43581803  0.98998724  0.13867331    -0.15200
F483        F  0.36438387  0.04354138  0.94325743    -0.15200
F484        F  0.36438689  0.98014346  0.95919384    -0.12900
C485        C  0.54252840  0.88040380  0.12194868     0.25100
C486        C  0.55587576  0.89812350  0.07051452    -0.23000
C487        C  0.53639410  0.91543326  0.02849948     0.20000
C488        C  0.50414866  0.91423387  0.03618698     0.25100
C489        C  0.49069548  0.89589229  0.08633195    -0.22900
C490        C  0.51007258  0.87943108  0.13001678     0.20000
F491        F  0.49753941  0.86116875  0.17817630    -0.12900
F492        F  0.56071154  0.86274310  0.16205328    -0.15200
F493        F  0.48596904  0.93104632  0.99437590    -0.15200
F494        F  0.54861347  0.93352961  0.97965388    -0.12900
C495        C  0.28659487  0.90931168  0.13577755     0.25100
C496        C  0.30350499  0.89184850  0.09025258    -0.23000
C497        C  0.28701710  0.87490316  0.04270547     0.20000
C498        C  0.25444026  0.87551025  0.04075593     0.25100
C499        C  0.23773049  0.89278081  0.08651642    -0.22900
C500        C  0.25403083  0.90963772  0.13404329     0.20000
F501        F  0.23836801  0.92690230  0.17828081    -0.12900
F502        F  0.30150864  0.92649631  0.18146688    -0.15200
F503        F  0.23918231  0.85835585  0.24550275    -0.15200
F504        F  0.30233320  0.85724039  0.99865601    -0.12900
C505        C  0.37374572  0.53527643  0.97579993     0.25100
C506        C  0.39277593  0.55409185  0.26477172    -0.23000
C507        C  0.41042134  0.54022648  0.06529011     0.20000
C508        C  0.40985351  0.50777015  0.07498437     0.25100
C509        C  0.39160916  0.48886827  0.03421961    -0.22900
C510        C  0.37309418  0.50308883  0.98544817     0.20000
F511        F  0.35427081  0.48581484  0.94661732    -0.12900
F512        F  0.35558897  0.54809018  0.92815588    -0.15200
F513        F  0.42819076  0.49480403  0.12207195    -0.15200
F514        F  0.42938820  0.55784132  0.35301863    -0.12900
C515        C  0.50317739  0.62385670  0.02715490     0.25100
C516        C  0.48965038  0.64188041  0.22704473    -0.23000
C517        C  0.50883269  0.65856486  0.18304842     0.20000
C518        C  0.54130361  0.65810733  0.19074761     0.25100
C519        C  0.55482933  0.64066805  0.99218155    -0.22900
C520        C  0.53544621  0.62306707  0.03444110     0.20000
F521        F  0.54775203  0.60511264  0.08320017    -0.12900
F522        F  0.48503297  0.60700457  0.06929518    -0.15200
F523        F  0.55929905  0.67591854  0.15016877    -0.15200
F524        F  0.49606062  0.67651448  0.13487417    -0.12900
C525        C  0.28639421  0.66350423  0.17528146     0.25100
C526        C  0.30295812  0.64627327  0.22243509    -0.23000
C527        C  0.28654370  0.62909529  0.02047961     0.20000
C528        C  0.25393511  0.62894167  0.02105338     0.25100
C529        C  0.23720922  0.64622800  0.22381567    -0.22900
C530        C  0.25384987  0.66364894  0.17608207     0.20000
F531        F  0.23868943  0.68127390  0.13054369    -0.12900
F532        F  0.30177003  0.68088240  0.12936455    -0.15200
F533        F  0.23881364  0.61133051  0.06693310    -0.15200
F534        F  0.30212983  0.61175488  0.06585174    -0.12900
C535        C  0.37962020  0.75815903  0.20984593     0.25100
C536        C  0.39826471  0.73707734  0.17575625    -0.23000
C537        C  0.41647219  0.74804734  0.12284557     0.20000
C538        C  0.41596163  0.77956361  0.10423470     0.25100
C539        C  0.39727508  0.80064183  0.13827987    -0.22900
C540        C  0.37908964  0.78965322  0.19122388     0.20000
F541        F  0.36006878  0.80925478  0.22386092    -0.12900
F542        F  0.36116183  0.74811669  0.25994275    -0.15200
F543        F  0.43438856  0.78960525  0.05409281    -0.15200
F544        F  0.43541907  0.72838917  0.09017040    -0.12900
O545        O  0.39539356  0.69431167  0.50233745    -0.70200
O546        O  0.39721485  0.60758657  0.29500944    -0.70500
O547        O  0.44040483  0.65168477  0.27403373    -0.70300
O548        O  0.35224572  0.64968647  0.52451070    -0.70300
O549        O  0.35231741  0.64317696  0.41936000    -0.70300
O550        O  0.44079305  0.63797621  0.42211820    -0.70300
O551        O  0.39344076  0.59749983  0.44157859    -0.70200
O552        O  0.39961193  0.68343392  0.39937835    -0.70400
V553        V  0.39634883  0.65074914  0.27201090     1.35200
V554        V  0.39654040  0.64069107  0.42255316     1.35200
C555        C  0.39784195  0.70359128  0.44343595     0.79000
C556        C  0.39471325  0.58778608  0.50017133     0.79100
C557        C  0.45557814  0.64418766  0.47379898     0.78900
C558        C  0.33724568  0.64641622  0.47197835     0.78900
O559        O  0.40010042  0.84339833  0.31152577    -0.70200
O560        O  0.39456674  0.93014944  0.26909571    -0.70500
O561        O  0.44110812  0.88984230  0.28785248    -0.70300
O562        O  0.35323129  0.88382230  0.29142002    -0.70300
O563        O  0.35321912  0.89956325  0.39170313    -0.70300
O564        O  0.44192132  0.89492006  0.39336982    -0.70300
O565        O  0.40036504  0.94011887  0.37212827    -0.70200
O566        O  0.39479522  0.85425437  0.41424874    -0.70400
V567        V  0.39723229  0.88690196  0.29181178     1.35200
V568        V  0.39753110  0.89700226  0.39104695     1.35200
C569        C  0.39738326  0.83409426  0.37037797     0.79000
C570        C  0.39799189  0.94993922  0.31382544     0.79100
C571        C  0.45654524  0.89314687  0.33981054     0.78900
C572        C  0.33805647  0.89168740  0.34138077     0.78900
O573        O  0.14279862  0.69496147  0.43714758    -0.70200
O574        O  0.14577924  0.60816349  0.39932407    -0.70500
O575        O  0.10044227  0.65063826  0.41378780    -0.70300
O576        O  0.18825621  0.65300433  0.42128479    -0.70300
O577        O  0.18686414  0.63860216  0.27342579    -0.70300
O578        O  0.09804017  0.64262638  0.26874049    -0.70300
O579        O  0.14031819  0.59774422  0.25290449    -0.70200
O580        O  0.14468920  0.68358789  0.29089490    -0.70400
V581        V  0.14428785  0.65145563  0.41982605     1.35200
V582        V  0.14251153  0.64084631  0.26957258     1.35200
C583        C  0.14397049  0.70397443  0.24574278     0.79000
C584        C  0.14282011  0.58814104  0.44516184     0.79100
C585        C  0.08415519  0.64699098  0.46473596     0.78900
C586        C  0.20270458  0.64586947  0.47308177     0.78900
O587        O  0.14750073  0.84320745  0.37089180    -0.70200
O588        O  0.14263537  0.92956751  0.41125935    -0.70500
O589        O  0.10108239  0.88345871  0.39308081    -0.70300
O590        O  0.18893652  0.88931210  0.39029674    -0.70300
O591        O  0.18778143  0.89491555  0.28455723    -0.70300
O592        O  0.09911147  0.90040891  0.29264761    -0.70300
O593        O  0.14702169  0.94054184  0.30764614    -0.70200
O594        O  0.14005130  0.85489547  0.26843315    -0.70400
V595        V  0.14496241  0.88654508  0.38955057     1.35200
V596        V  0.14349722  0.89752132  0.29010706     1.35200
C597        C  0.14364208  0.83434231  0.31263165     0.79000
C598        C  0.14544558  0.94980281  0.36586577     0.79100
C599        C  0.08493435  0.89172797  0.34422719     0.78900
C600        C  0.20342113  0.89230493  0.33686287     0.78900
O601        O  0.34448787  0.39410097  0.26128639    -0.70200
O602        O  0.43121951  0.39597078  0.47149377    -0.70500
O603        O  0.38888727  0.35088191  0.24268536    -0.70300
O604        O  0.38673108  0.43872672  0.23883689    -0.70300
O605        O  0.39943656  0.43997704  0.34148409    -0.70300
O606        O  0.39709611  0.35103244  0.34755275    -0.70300
O607        O  0.44135471  0.39411935  0.32548976    -0.70200
O608        O  0.35536798  0.39622926  0.36485450    -0.70400
V609        V  0.38800675  0.39491235  0.24310101     1.35200
V610        V  0.39815310  0.39540820  0.34287996     1.35200
C611        C  0.33525411  0.39507933  0.32000540     0.79000
C612        C  0.45103732  0.39459548  0.26718208     0.79100
C613        C  0.39315223  0.33594115  0.29552810     0.78900
C614        C  0.39272717  0.45445686  0.28887872     0.78900
O615        O  0.19518361  0.39435872  0.44521706    -0.70200
O616        O  0.10822835  0.39441298  0.48270144    -0.70500
O617        O  0.15094665  0.35044767  0.46284711    -0.70300
O618        O  0.15191800  0.43865709  0.46639390    -0.70300
O619        O  0.14192679  0.44092473  0.36224253    -0.70300
O620        O  0.14196706  0.35215934  0.35827139    -0.70300
O621        O  0.09870270  0.39629136  0.37842339    -0.70200
O622        O  0.18492244  0.39730905  0.34132115    -0.70400
V623        V  0.15149839  0.39455528  0.46224429     1.35200
V624        V  0.14204588  0.39654499  0.36210718     1.35200
C625        C  0.20478485  0.39601947  0.38668056     0.79000
C626        C  0.08868226  0.39556503  0.43649760     0.79100
C627        C  0.14622709  0.33626509  0.41019697     0.78900
C628        C  0.14651038  0.45480230  0.41547032     0.78900
O629        O  0.34562522  0.13883115  0.31403508    -0.70200
O630        O  0.43197609  0.14338060  0.35707130    -0.70500
O631        O  0.38626953  0.18527033  0.33752917    -0.70300
O632        O  0.39144294  0.09734563  0.33456326    -0.70300
O633        O  0.40011588  0.09907655  0.47983169    -0.70300
O634        O  0.40021488  0.18772652  0.48556682    -0.70300
O635        O  0.44300430  0.14354182  0.50341519    -0.70200
O636        O  0.35722837  0.14400125  0.46108486    -0.70400
V637        V  0.38896294  0.14124740  0.33381433     1.35200
V638        V  0.39990211  0.14346611  0.48443708     1.35200
C639        C  0.33674344  0.14140451  0.50514272     0.79000
C640        C  0.45220556  0.14413446  0.31204659     0.79100
C641        C  0.39310171  0.20161429  0.28757305     0.78900
C642        C  0.39663635  0.08322133  0.28206798     0.78900
O643        O  0.19711359  0.14435637  0.37744213    -0.70200
O644        O  0.11038961  0.14346532  0.33648844    -0.70500
O645        O  0.15321485  0.18770692  0.35963250    -0.70300
O646        O  0.15468925  0.09982739  0.35298169    -0.70300
O647        O  0.14306633  0.09634150  0.45613581    -0.70300
O648        O  0.14241777  0.18525832  0.46325858    -0.70300
O649        O  0.09993650  0.14052755  0.44027965    -0.70200
O650        O  0.18581908  0.14050677  0.48074731    -0.70400
V651        V  0.15362818  0.14374010  0.35865052     1.35200
V652        V  0.14304546  0.14080506  0.45813954     1.35200
C653        C  0.20616642  0.14226328  0.43626516     0.79000
C654        C  0.09039487  0.14167315  0.38195866     0.79100
C655        C  0.14769241  0.20161719  0.41219768     0.78900
C656        C  0.14911422  0.08298275  0.40287803     0.78900
O657        O  0.64718372  0.34367261  0.50632460    -0.70200
O658        O  0.64250737  0.43022259  0.29587697    -0.70500
O659        O  0.60088598  0.38395395  0.27956741    -0.70300
O660        O  0.68867026  0.38996428  0.52389967    -0.70300
O661        O  0.68674654  0.39533975  0.41815404    -0.70300
O662        O  0.59822746  0.40060061  0.42900356    -0.70300
O663        O  0.64609622  0.44087627  0.44200594    -0.70200
O664        O  0.63904348  0.35514177  0.40400213    -0.70400
V665        V  0.64471930  0.38709967  0.27459649     1.35200
V666        V  0.64254226  0.39781707  0.42509947     1.35200
C667        C  0.64295251  0.33467402  0.44824595     0.79000
C668        C  0.64498188  0.45032284  0.50012785     0.79100
C669        C  0.58442694  0.39206226  0.48110963     0.78900
C670        C  0.70274308  0.39293739  0.46998677     0.78900
O671        O  0.64423468  0.19620265  0.31964110    -0.70200
O672        O  0.64605295  0.10992994  0.27707645    -0.70500
O673        O  0.60141563  0.15248485  0.29632204    -0.70300
O674        O  0.68935143  0.15414157  0.29923507    -0.70300
O675        O  0.68903874  0.14116021  0.40222431    -0.70300
O676        O  0.60007229  0.14067511  0.39986467    -0.70300
O677        O  0.64519320  0.09820436  0.38074668    -0.70200
O678        O  0.64468280  0.18373132  0.42294596    -0.70400
V679        V  0.64526779  0.15293125  0.30008468     1.35200
V680        V  0.64467412  0.14117511  0.39946213     1.35200
C681        C  0.64440988  0.20458490  0.37870624     0.79000
C682        C  0.64626092  0.08938126  0.32223113     0.79100
C683        C  0.58561570  0.14682701  0.34719824     0.78900
C684        C  0.70433409  0.14778354  0.35082870     0.78900
O685        O  0.89925828  0.34430609  0.44097953    -0.70200
O686        O  0.89334620  0.43089169  0.39860204    -0.70500
O687        O  0.94005045  0.39069518  0.41685817    -0.70300
O688        O  0.85223935  0.38459045  0.42147471    -0.70300
O689        O  0.85249921  0.40050969  0.27162962    -0.70300
O690        O  0.94111042  0.39562768  0.27240546    -0.70300
O691        O  0.89958487  0.44097956  0.25145943    -0.70200
O692        O  0.89404779  0.35510436  0.29376330    -0.70400
V693        V  0.89621094  0.38772971  0.42131227     1.35200
V694        V  0.89676224  0.39785590  0.27052106     1.35200
C695        C  0.89675638  0.33498558  0.24983769     0.79000
C696        C  0.89680239  0.45073017  0.44318687     0.79100
C697        C  0.95560454  0.39373732  0.46872962     0.78900
C698        C  0.83722247  0.39260468  0.47152508     0.78900
O699        O  0.89711143  0.19476448  0.37957198    -0.70200
O700        O  0.89858398  0.10774366  0.41937712    -0.70500
O701        O  0.94199863  0.15186110  0.40034721    -0.70300
O702        O  0.85384015  0.15017857  0.39978060    -0.70300
O703        O  0.85407263  0.14435922  0.29444122    -0.70300
O704        O  0.94260051  0.13904556  0.29791543    -0.70300
O705        O  0.89514125  0.09851163  0.31551198    -0.70200
O706        O  0.90142236  0.18464196  0.27625748    -0.70400
V707        V  0.89794010  0.15107459  0.39780682     1.35200
V708        V  0.89832137  0.14178941  0.29798902     1.35200
C709        C  0.89950523  0.20445266  0.32094424     0.79000
C710        C  0.89611727  0.08833561  0.37378096     0.79100
C711        C  0.95728592  0.14478353  0.34999076     0.78900
C712        C  0.83891061  0.14733014  0.34703837     0.78900
O713        O  0.69525910  0.64244859  0.25006558    -0.70200
O714        O  0.60856069  0.64479805  0.45975062    -0.70500
O715        O  0.65312379  0.68783253  0.23013793    -0.70300
O716        O  0.65115562  0.59974419  0.22851875    -0.70300
O717        O  0.64325189  0.59811834  0.33337078    -0.70300
O718        O  0.63893257  0.68701497  0.33197864    -0.70300
O719        O  0.59830214  0.64010637  0.31340284    -0.70200
O720        O  0.68410731  0.64498569  0.35340084    -0.70400
V721        V  0.65180147  0.64371258  0.23155411     1.35200
V722        V  0.64136139  0.64261371  0.33111721     1.35200
C723        C  0.70437852  0.64378415  0.30881668     0.79000
C724        C  0.58865189  0.64196415  0.25520601     0.79100
C725        C  0.64587034  0.70260546  0.28078175     0.78900
C726        C  0.64761119  0.58381555  0.28046601     0.78900
O727        O  0.84430209  0.64377424  0.43529536    -0.70200
O728        O  0.93114101  0.64179071  0.47385273    -0.70500
O729        O  0.88893930  0.68671357  0.45450974    -0.70300
O730        O  0.88695338  0.59869161  0.45597250    -0.70300
O731        O  0.90044129  0.59856433  0.35345117    -0.70300
O732        O  0.89513251  0.68711063  0.34902822    -0.70300
O733        O  0.94094146  0.64597116  0.36989809    -0.70200
O734        O  0.85488452  0.63983924  0.33192199    -0.70400
V735        V  0.88790751  0.64270067  0.45292838     1.35200
V736        V  0.89768149  0.64285170  0.35299841     1.35200
C737        C  0.83485510  0.64159670  0.37686022     0.79000
C738        C  0.95083408  0.64451362  0.42806268     0.79100
C739        C  0.89205800  0.70192833  0.40160686     0.78900
C740        C  0.89437379  0.58366357  0.40581342     0.78900
O741        O  0.69615257  0.89316820  0.31234808    -0.70200
O742        O  0.60955906  0.89681393  0.35290519    -0.70500
O743        O  0.65013095  0.85117980  0.33036923    -0.70300
O744        O  0.65554488  0.93917448  0.33598116    -0.70300
O745        O  0.64191262  0.94266550  0.48395878    -0.70300
O746        O  0.64264899  0.85385419  0.47535201    -0.70300
O747        O  0.59925104  0.89745288  0.49892785    -0.70200
O748        O  0.68525009  0.89955278  0.45934919    -0.70400
V749        V  0.65269040  0.89519776  0.33093360     1.35200
V750        V  0.64245321  0.89824689  0.48134832     1.35200
C751        C  0.70542057  0.89637555  0.50379481     0.79000
C752        C  0.58964601  0.89738032  0.30730042     0.79100
C753        C  0.64587979  0.83746329  0.27699716     0.78900
C754        C  0.64913473  0.95605277  0.28659915     0.78900
O755        O  0.84477412  0.89645585  0.37609297    -0.70200
O756        O  0.93130867  0.89549709  0.33398390    -0.70500
O757        O  0.88705856  0.85180763  0.35490053    -0.70300
O758        O  0.88850278  0.93970641  0.35422499    -0.70300
O759        O  0.89933832  0.93963909  0.45789589    -0.70300
O760        O  0.89908313  0.85080257  0.45798880    -0.70300
O761        O  0.94208716  0.89504342  0.43773922    -0.70200
O762        O  0.85628180  0.89469389  0.47947726    -0.70400
V763        V  0.88815948  0.89584300  0.35680519     1.35200
V764        V  0.89899678  0.89513310  0.45628686     1.35200
C765        C  0.83587016  0.89550067  0.43510058     0.79000
C766        C  0.95142265  0.89475964  0.37922730     0.79100
C767        C  0.89287437  0.83620186  0.40626425     0.78900
C768        C  0.89359277  0.95476566  0.40561077     0.78900
C769        C  0.78150355  0.91419072  0.41679046     0.25100
C770        C  0.80249403  0.89546406  0.45222343    -0.23000
C771        C  0.79145160  0.87716514  0.50514604     0.20000
C772        C  0.75992640  0.87768160  0.52250143     0.25100
C773        C  0.73889689  0.89641222  0.48704289    -0.22900
C774        C  0.74999254  0.91469870  0.43406821     0.20000
F775        F  0.73048137  0.93374941  0.40001165    -0.12900
F776        F  0.79165356  0.93267925  0.36652685    -0.15200
F777        F  0.74981862  0.85916886  0.32277214    -0.15200
F778        F  0.81101105  0.85799224  0.53877652    -0.12900
C779        C  0.87536894  0.75336247  0.35564180     0.25100
C780        C  0.89244914  0.73615278  0.40202298    -0.23000
C781        C  0.90955311  0.75184536  0.45003295     0.20000
C782        C  0.90969707  0.78438187  0.45156815     0.25100
C783        C  0.89250476  0.80177477  0.40530573    -0.22900
C784        C  0.87527510  0.78591664  0.35734430     0.20000
F785        F  0.85785602  0.80185042  0.31271244    -0.12900
F786        F  0.85803353  0.73861251  0.30988495    -0.15200
F787        F  0.92719890  0.79881951  0.49748874    -0.15200
F788        F  0.92670633  0.73562512  0.49469029    -0.12900
C789        C  0.62803762  0.75379949  0.32544755     0.25100
C790        C  0.64555620  0.73721054  0.27947587    -0.23000
C791        C  0.66261693  0.75408472  0.23150864     0.20000
C792        C  0.66215080  0.78671639  0.22970442     0.25100
C793        C  0.64487497  0.80311404  0.27598083    -0.22900
C794        C  0.62783519  0.78642983  0.32383135     0.20000
F795        F  0.61059627  0.80180354  0.36861034    -0.12900
F796        F  0.61073695  0.73850120  0.37151379    -0.15200
F797        F  0.67956613  0.80232367  0.43425480    -0.15200
F798        F  0.68041704  0.73907520  0.43713511    -0.12900
C799        C  0.79010085  0.62370422  0.30849531     0.25100
C800        C  0.80134046  0.64156590  0.36068457    -0.23000
C801        C  0.78051902  0.66037885  0.39521291     0.20000
C802        C  0.74903004  0.66139956  0.37772774     0.25100
C803        C  0.73780889  0.64354783  0.32555073    -0.22900
C804        C  0.75861115  0.62471228  0.29105364     0.20000
F805        F  0.74830897  0.60663103  0.49154075    -0.12900
F806        F  0.80946856  0.60464208  0.27535023    -0.15200
F807        F  0.72967886  0.68059835  0.41054855    -0.15200
F808        F  0.79082037  0.67853865  0.44459152    -0.12900
C809        C  0.91031436  0.00751749  0.44552382     0.25100
C810        C  0.89247306  0.98916319  0.40294417    -0.23000
C811        C  0.87431445  0.00397027  0.35439272     0.20000
C812        C  0.87505655  0.03623758  0.34650464     0.25100
C813        C  0.89384677  0.05454647  0.38703500    -0.22900
C814        C  0.91100820  0.04006393  0.43756383     0.20000
F815        F  0.92961586  0.05719823  0.47700620    -0.12900
F816        F  0.92815263  0.99394943  0.49272948    -0.15200
F817        F  0.85727380  0.04963169  0.29892224    -0.15200
F818        F  0.85579676  0.98718585  0.31401562    -0.12900
C819        C  0.88039498  0.49787642  0.37738818     0.25100
C820        C  0.89788693  0.48452187  0.42881954    -0.23000
C821        C  0.91565465  0.50401691  0.46921192     0.20000
C822        C  0.91495140  0.53625315  0.46018049     0.25100
C823        C  0.89684757  0.54962074  0.41016758    -0.22900
C824        C  0.88000580  0.53032223  0.36796028     0.20000
F825        F  0.86196450  0.54295978  0.31998057    -0.12900
F826        F  0.86251623  0.47973738  0.33846335    -0.15200
F827        F  0.93191622  0.55454546  0.50061609    -0.15200
F828        F  0.93371275  0.49186071  0.26774024    -0.12900
C829        C  0.88058379  0.25861016  0.33878795     0.25100
C830        C  0.89952900  0.23798678  0.30418601    -0.23000
C831        C  0.91738954  0.24940764  0.25118394     0.20000
C832        C  0.91626967  0.28093148  0.23302029     0.25100
C833        C  0.89727325  0.30155018  0.26753567    -0.22900
C834        C  0.87943442  0.29012913  0.32058073     0.20000
F835        F  0.86013201  0.30930004  0.35361871    -0.12900
F836        F  0.86236682  0.24806843  0.38884282    -0.15200
F837        F  0.93437513  0.29143690  0.43273947    -0.15200
F838        F  0.93648609  0.23016570  0.21780093    -0.12900
C839        C  0.66801663  0.00459542  0.34027037     0.25100
C840        C  0.64990988  0.99051358  0.29141664    -0.23000
C841        C  0.63172321  0.00962091  0.24982304     0.20000
C842        C  0.63095398  0.04201245  0.25847481     0.25100
C843        C  0.64845338  0.05576610  0.30852879    -0.22900
C844        C  0.66727733  0.03679515  0.34865395     0.20000
F845        F  0.68511615  0.04951163  0.39627692    -0.12900
F846        F  0.68651948  0.98720791  0.38031866    -0.15200
F847        F  0.61182914  0.05965005  0.22034354    -0.15200
F848        F  0.61360939  0.99688266  0.45272537    -0.12900
C849        C  0.75568205  0.13048859  0.39723623     0.25100
C850        C  0.73885168  0.14791311  0.35036485    -0.23000
C851        C  0.75537665  0.16499191  0.30195809     0.20000
C852        C  0.78795053  0.16454613  0.30044264     0.25100
C853        C  0.80460578  0.14728284  0.34747711    -0.22900
C854        C  0.78826068  0.13029742  0.39590325     0.20000
F855        F  0.80387764  0.11286425  0.44107895    -0.12900
F856        F  0.74065818  0.11304065  0.44353760    -0.15200
F857        F  0.80325840  0.18170405  0.50406421    -0.15200
F858        F  0.74007465  0.18257108  0.25655984    -0.12900
C859        C  0.66604074  0.50294189  0.47208125     0.25100
C860        C  0.64720587  0.48406785  0.51284556    -0.23000
C861        C  0.62993695  0.49800555  0.31294121     0.20000
C862        C  0.63071644  0.53048224  0.32052005     0.25100
C863        C  0.64868929  0.54939317  0.27790447    -0.22900
C864        C  0.66676402  0.53517829  0.47945828     0.20000
F865        F  0.68520911  0.55253740  0.43881398    -0.12900
F866        F  0.68390736  0.49013072  0.42479807    -0.15200
F867        F  0.61274792  0.54350117  0.36731020    -0.15200
F868        F  0.61111159  0.48044142  0.35229816    -0.12900
C869        C  0.75347677  0.41074721  0.26538774     0.25100
C870        C  0.73700097  0.39365101  0.46856000    -0.23000
C871        C  0.75348395  0.37638245  0.42245932     0.20000
C872        C  0.78605261  0.37585233  0.42367108     0.25100
C873        C  0.80272001  0.39287439  0.47080235    -0.22900
C874        C  0.78602708  0.41049731  0.26638408     0.20000
F875        F  0.80114171  0.42789696  0.31142969    -0.12900
F876        F  0.73799924  0.42815879  0.30965870    -0.15200
F877        F  0.80118339  0.35815054  0.37941233    -0.15200
F878        F  0.73802144  0.35914450  0.37765281    -0.12900
C879        C  0.66247968  0.24855095  0.44835646     0.25100
C880        C  0.64420806  0.23785882  0.39610385    -0.23000
C881        C  0.62531924  0.25909005  0.36162310     0.20000
C882        C  0.62461093  0.29046966  0.37920808     0.25100
C883        C  0.64283292  0.30121926  0.43162387    -0.22900
C884        C  0.66173246  0.27992396  0.46611099     0.20000
F885        F  0.68024209  0.28963876  0.26568340    -0.12900
F886        F  0.68195673  0.22882997  0.48075345    -0.15200
F887        F  0.60551596  0.31020131  0.34581846    -0.15200
F888        F  0.60695401  0.24930453  0.31184960    -0.12900
C889        C  0.00478509  0.12426306  0.40372422     0.25100
C890        C  0.99138351  0.14237178  0.35354749    -0.23000
C891        C  0.01072648  0.15899016  0.30971805     0.20000
C892        C  0.04319837  0.15829937  0.31751973     0.25100
C893        C  0.05657932  0.14068542  0.36886047    -0.22900
C894        C  0.03704939  0.12325645  0.41110707     0.20000
F895        F  0.04922416  0.10524210  0.45992179    -0.12900
F896        F  0.98651767  0.10751570  0.44580903    -0.15200
F897        F  0.06135622  0.17608055  0.27720396    -0.15200
F898        F  0.99811985  0.17710024  0.26161464    -0.12900
C899        C  0.53221327  0.12979796  0.38600099     0.25100
C900        C  0.55115901  0.14776535  0.34344905    -0.23000
C901        C  0.53691523  0.16590244  0.29390572     0.20000
C902        C  0.50472497  0.16515420  0.28535471     0.25100
C903        C  0.48586826  0.14637379  0.32610548    -0.22900
C904        C  0.49975013  0.12906846  0.37727238     0.20000
F905        F  0.48214490  0.11020703  0.41649945    -0.12900
F906        F  0.54514976  0.11186885  0.43399830    -0.15200
F907        F  0.49191764  0.18292812  0.48686353    -0.15200
F908        F  0.55417261  0.18442415  0.25317772    -0.12900
C909        C  0.28178655  0.12344846  0.27355349     0.25100
C910        C  0.30332555  0.14162955  0.48774126    -0.23000
C911        C  0.29270777  0.15991872  0.43450351     0.20000
C912        C  0.26115791  0.15992498  0.41729651     0.25100
C913        C  0.23962434  0.14177333  0.45317597    -0.22900
C914        C  0.25023720  0.12349320  0.25639322     0.20000
F915        F  0.23018909  0.10495042  0.29077007    -0.12900
F916        F  0.29137321  0.10502488  0.32422553    -0.15200
F917        F  0.25153476  0.17839091  0.36671783    -0.15200
F918        F  0.31271565  0.17860064  0.40031838    -0.12900
C919        C  0.00879765  0.37894540  0.50880137     0.25100
C920        C  0.98975754  0.39578827  0.46510415    -0.23000
C921        C  0.00351833  0.41371047  0.41470498     0.20000
C922        C  0.03575112  0.41415707  0.40681077     0.25100
C923        C  0.05488569  0.39651709  0.44893381    -0.22900
C924        C  0.04123548  0.37920376  0.50061635     0.20000
F925        F  0.05908767  0.36139701  0.29110984    -0.12900
F926        F  0.99591983  0.36106705  0.30720873    -0.15200
F927        F  0.04829334  0.43196680  0.35786827    -0.15200
F928        F  0.98565379  0.43087807  0.37292394    -0.12900
C929        C  0.12933376  0.28498058  0.45800207     0.25100
C930        C  0.14598364  0.30194722  0.40995388    -0.23000
C931        C  0.16336574  0.28590503  0.36337065     0.20000
C932        C  0.16423968  0.25333437  0.36482894     0.25100
C933        C  0.14746077  0.23614820  0.41271155    -0.22900
C934        C  0.12994207  0.25233610  0.45925370     0.20000
F935        F  0.11286204  0.23662090  0.50506860    -0.12900
F936        F  0.11193830  0.30006583  0.50294705    -0.15200
F937        F  0.18201767  0.23865898  0.31992804    -0.15200
F938        F  0.18031678  0.30182761  0.31762852    -0.12900
C939        C  0.49874214  0.41021301  0.45302334     0.25100
C940        C  0.48475678  0.39282758  0.25406048    -0.23000
C941        C  0.50348132  0.37415854  0.29494211     0.20000
C942        C  0.53566420  0.37345741  0.28629495     0.25100
C943        C  0.55000372  0.39150724  0.48649613    -0.22900
C944        C  0.53115038  0.40958501  0.44426198     0.20000
F945        F  0.54409900  0.42755932  0.39611165    -0.12900
F946        F  0.48124625  0.42890073  0.41357960    -0.15200
F947        F  0.55275404  0.35500565  0.32707005    -0.15200
F948        F  0.49054663  0.35629250  0.34335512    -0.12900
C949        C  0.37660881  0.28418582  0.34146980     0.25100
C950        C  0.39379329  0.30170440  0.29542416    -0.23000
C951        C  0.41084876  0.28632301  0.24716865     0.20000
C952        C  0.41069592  0.25381697  0.24472739     0.25100
C953        C  0.39317524  0.23606700  0.29023488    -0.22900
C954        C  0.37617878  0.25160977  0.33882357     0.20000
F955        F  0.35864417  0.23537546  0.38306208    -0.12900
F956        F  0.35938695  0.29866114  0.38758651    -0.15200
F957        F  0.42816945  0.23976269  0.44844110    -0.15200
F958        F  0.42811983  0.30284402  0.20288541    -0.12900
C959        C  0.25918446  0.37761227  0.40668884     0.25100
C960        C  0.23829823  0.39628563  0.37080355    -0.23000
C961        C  0.24948489  0.41438626  0.31765538     0.20000
C962        C  0.28101538  0.41372274  0.30056968     0.25100
C963        C  0.30185435  0.39502573  0.33641225    -0.22900
C964        C  0.29071390  0.37693661  0.38951719     0.20000
F965        F  0.31019355  0.35779603  0.42342791    -0.12900
F966        F  0.24890715  0.35925889  0.45703834    -0.15200
F967        F  0.29134517  0.43200572  0.25014425    -0.15200
F968        F  0.23002060  0.43336377  0.28326513    -0.12900
C969        C  0.13021777  0.99701224  0.42982971     0.25100
C970        C  0.14754106  0.98347459  0.37934024    -0.23000
C971        C  0.16651115  0.00263678  0.33947129     0.20000
C972        C  0.16751814  0.03476710  0.34847409     0.25100
C973        C  0.14959639  0.04859693  0.39771887    -0.22900
C974        C  0.13126534  0.02935509  0.43904242     0.20000
F975        F  0.11330470  0.04192937  0.48639982    -0.12900
F976        F  0.11114998  0.97919200  0.46816101    -0.15200
F977        F  0.18614658  0.05235331  0.30868422    -0.15200
F978        F  0.18433642  0.99020766  0.29165983    -0.12900
C979        C  0.03174427  0.90946266  0.30653990     0.25100
C980        C  0.05043919  0.89116761  0.34873170    -0.23000
C981        C  0.03587244  0.87294507  0.39798160     0.20000
C982        C  0.00367453  0.87377076  0.40631973     0.25100
C983        C  0.98510990  0.89269913  0.36564884    -0.22900
C984        C  0.99928356  0.91021202  0.31500193     0.20000
F985        F  0.98195457  0.92921915  0.27591328    -0.12900
F986        F  0.04490229  0.92757823  0.25887900    -0.15200
F987        F  0.99055665  0.85583767  0.45440473    -0.15200
F988        F  0.05275966  0.85423119  0.43860795    -0.12900
C989        C  0.16087112  0.50859600  0.37559519     0.25100
C990        C  0.14449493  0.48896171  0.41938603    -0.23000
C991        C  0.12635519  0.50212814  0.46876433     0.20000
C992        C  0.12507421  0.53440406  0.47537308     0.25100
C993        C  0.14223036  0.55423548  0.43311591    -0.22900
C994        C  0.15990234  0.54107354  0.38261513     0.20000
F995        F  0.17733044  0.55946818  0.34207120    -0.12900
F996        F  0.17888010  0.49627794  0.32801608    -0.15200
F997        F  0.10692384  0.54627805  0.27327914    -0.15200
F998        F  0.10960072  0.48364379  0.26048208    -0.12900
C999        C  0.03072088  0.63007415  0.50217220     0.25100
C1000       C  0.04980207  0.64790717  0.45974890    -0.23000
C1001       C  0.03584586  0.66565836  0.40932247     0.20000
C1002       C  0.00366278  0.66491232  0.40022867     0.25100
C1003       C  0.98461735  0.64639853  0.44123765    -0.22900
C1004       C  0.99833904  0.62929083  0.49291096     0.20000
F1005       F  0.98061776  0.61069072  0.28249617    -0.12900
F1006       F  0.04347858  0.61229049  0.30061714    -0.15200
F1007       F  0.99108131  0.68252126  0.35123667    -0.15200
F1008       F  0.05339236  0.68384863  0.36849714    -0.12900
C1009       C  0.16225557  0.77962938  0.33088045     0.25100
C1010       C  0.14354482  0.80092114  0.29595214    -0.23000
C1011       C  0.12533133  0.79013744  0.24357656     0.20000
C1012       C  0.12578620  0.75867226  0.22659085     0.25100
C1013       C  0.14436618  0.73740633  0.26175315    -0.22900
C1014       C  0.16268783  0.74816978  0.31387473     0.20000
F1015       F  0.18175036  0.72837216  0.34719475    -0.12900
F1016       F  0.18078322  0.78939725  0.38040130    -0.15200
F1017       F  0.10735791  0.74882600  0.42699856    -0.15200
F1018       F  0.10637330  0.80988709  0.20988734    -0.12900
C1019       C  0.41786789  0.00271880  0.34061464     0.25100
C1020       C  0.39972296  0.98377117  0.29981875    -0.23000
C1021       C  0.38244987  0.99775190  0.24878333     0.20000
C1022       C  0.38237839  0.03030687  0.24062793     0.25100
C1023       C  0.39936265  0.04908703  0.28369946    -0.22900
C1024       C  0.41752985  0.03501758  0.33282571     0.20000
F1025       F  0.43479154  0.05269638  0.37392976    -0.12900
F1026       F  0.43584137  0.98996871  0.38864151    -0.15200
F1027       F  0.36436956  0.04352903  0.19329444    -0.15200
F1028       F  0.36437263  0.98013068  0.20922691    -0.12900
C1029       C  0.54253450  0.88039192  0.37194417     0.25100
C1030       C  0.55588085  0.89811816  0.32051863    -0.23000
C1031       C  0.53639844  0.91542997  0.27850952     0.20000
C1032       C  0.50415293  0.91422730  0.28619480     0.25100
C1033       C  0.49070091  0.89587970  0.33633169    -0.22900
C1034       C  0.51007861  0.87941575  0.38000998     0.20000
F1035       F  0.49754629  0.86114797  0.42816173    -0.12900
F1036       F  0.56071865  0.86272886  0.41204197    -0.15200
F1037       F  0.48597239  0.93104206  0.24438991    -0.15200
F1038       F  0.54861700  0.93353158  0.22967149    -0.12900
C1039       C  0.28660228  0.90930608  0.38577243     0.25100
C1040       C  0.30351078  0.89183666  0.34025617    -0.23000
C1041       C  0.28702152  0.87488750  0.29271687     0.20000
C1042       C  0.25444463  0.87549759  0.29076685     0.25100
C1043       C  0.23773643  0.89277458  0.33651851    -0.22900
C1044       C  0.25403821  0.90963482  0.38403849     0.20000
F1045       F  0.23837687  0.92690504  0.42826812    -0.12900
F1046       F  0.30151762  0.92649442  0.43145358    -0.15200
F1047       F  0.23918302  0.85835766  0.49550705    -0.15200
F1048       F  0.30233611  0.85721869  0.24867628    -0.12900
C1049       C  0.37376131  0.53526260  0.22578484     0.25100
C1050       C  0.39277960  0.55408350  0.51479014    -0.23000
C1051       C  0.41042475  0.54021475  0.31529585     0.20000
C1052       C  0.40985646  0.50775834  0.32499233     0.25100
C1053       C  0.39161808  0.48885506  0.28421827    -0.22900
C1054       C  0.37310959  0.50307491  0.23543479     0.20000
F1055       F  0.35429159  0.48580022  0.19659392    -0.12900
F1056       F  0.35561000  0.54807498  0.17813010    -0.15200
F1057       F  0.42818732  0.49479354  0.37209236    -0.15200
F1058       F  0.42938723  0.55783428  0.60304543    -0.12900
C1059       C  0.50318838  0.62384695  0.27714517     0.25100
C1060       C  0.48965617  0.64186957  0.47704533    -0.23000
C1061       C  0.50883667  0.65855334  0.43304500     0.20000
C1062       C  0.54130751  0.65809844  0.44074218     0.25100
C1063       C  0.55483931  0.64066519  0.24217742    -0.22900
C1064       C  0.53545736  0.62305936  0.28443202     0.20000
F1065       F  0.54776472  0.60510301  0.33318575    -0.12900
F1066       F  0.48504517  0.60699038  0.31928053    -0.15200
F1067       F  0.55930143  0.67590966  0.40016072    -0.15200
F1068       F  0.49606281  0.67650080  0.38486918    -0.12900
C1069       C  0.28640269  0.66349529  0.42529019     0.25100
C1070       C  0.30296571  0.64626504  0.47244699    -0.23000
C1071       C  0.28654979  0.62908690  0.27047936     0.20000
C1072       C  0.25394083  0.62893569  0.27105353     0.25100
C1073       C  0.23721725  0.64622308  0.47382720    -0.22900
C1074       C  0.25385857  0.66364142  0.42609160     0.20000
F1075       F  0.23869907  0.68126581  0.38055044    -0.12900
F1076       F  0.30177929  0.68087113  0.37937096    -0.15200
F1077       F  0.23881809  0.61132504  0.31693216    -0.15200
F1078       F  0.30213469  0.61174456  0.31585000    -0.12900
C1079       C  0.37962604  0.75814587  0.45984474     0.25100
C1080       C  0.39827195  0.73706471  0.42575687    -0.23000
C1081       C  0.41648036  0.74803451  0.37284826     0.20000
C1082       C  0.41596970  0.77955070  0.35423662     0.25100
C1083       C  0.39728176  0.80062841  0.38827991    -0.22900
C1084       C  0.37909535  0.78963988  0.44122188     0.20000
F1085       F  0.36007353  0.80924119  0.47385722    -0.12900
F1086       F  0.36116677  0.74810337  0.50993989    -0.15200
F1087       F  0.43439778  0.78959252  0.30409686    -0.15200
F1088       F  0.43542840  0.72837637  0.34017555    -0.12900
O1089       O  0.39538688  0.69432184  0.75233489    -0.70200
O1090       O  0.39722147  0.60757803  0.54502149    -0.70500
O1091       O  0.44041204  0.65167423  0.52403794    -0.70300
O1092       O  0.35223726  0.64969907  0.77450674    -0.70300
O1093       O  0.35230977  0.64318823  0.66935635    -0.70300
O1094       O  0.44078465  0.63798426  0.67211909    -0.70300
O1095       O  0.39343106  0.59751006  0.69157893    -0.70200
O1096       O  0.39960560  0.68344309  0.64937614    -0.70400
V1097       V  0.39635628  0.65073951  0.52201819     1.35200
V1098       V  0.39653238  0.64070080  0.67255188     1.35200
C1099       C  0.39783604  0.70360064  0.69343234     0.79000
C1100       C  0.39470271  0.58779708  0.75017234     0.79100
C1101       C  0.45556941  0.64419534  0.72380079     0.78900
C1102       C  0.33723778  0.64642848  0.72197391     0.78900
O1103       O  0.40009932  0.84340288  0.56151656    -0.70200
O1104       O  0.39457177  0.93015257  0.51907893    -0.70500
O1105       O  0.44111009  0.88984300  0.53783890    -0.70300
O1106       O  0.35323282  0.88382939  0.54140797    -0.70300
O1107       O  0.35322185  0.89957194  0.64168997    -0.70300
O1108       O  0.44192420  0.89492365  0.64335547    -0.70300
O1109       O  0.40037034  0.94012380  0.62211070    -0.70200
O1110       O  0.39479583  0.85426141  0.66423893    -0.70400
V1111       V  0.39723416  0.88690585  0.54179893     1.35200
V1112       V  0.39753391  0.89700826  0.64103325     1.35200
C1113       C  0.39738233  0.83410039  0.62036933     0.79000
C1114       C  0.39799810  0.94994287  0.56380692     0.79100
C1115       C  0.45654778  0.89314826  0.58979638     0.78900
C1116       C  0.33805861  0.89169611  0.59136826     0.78900
O1117       O  0.14278915  0.69496300  0.68714945    -0.70200
O1118       O  0.14577437  0.60816528  0.64932822    -0.70500
O1119       O  0.10043515  0.65063719  0.66379692    -0.70300
O1120       O  0.18824864  0.65300891  0.67128292    -0.70300
O1121       O  0.18687218  0.63859975  0.52343748    -0.70300
O1122       O  0.09804883  0.64262926  0.51875206    -0.70300
O1123       O  0.14032459  0.59774427  0.50291512    -0.70200
O1124       O  0.14469981  0.68358795  0.54090732    -0.70400
V1125       V  0.14428056  0.65145727  0.66982921     1.35200
V1126       V  0.14251993  0.64084639  0.51958419     1.35200
C1127       C  0.14398087  0.70397479  0.49575596     0.79000
C1128       C  0.14281754  0.58814299  0.69516731     0.79100
C1129       C  0.08414999  0.64698969  0.71474736     0.78900
C1130       C  0.20269840  0.64587537  0.72307800     0.78900
O1131       O  0.14750535  0.84321058  0.62089877    -0.70200
O1132       O  0.14263590  0.92957148  0.66125922    -0.70500
O1133       O  0.10108445  0.88346007  0.64308814    -0.70300
O1134       O  0.18893916  0.88931839  0.64029604    -0.70300
O1135       O  0.18778157  0.89491937  0.53455621    -0.70300
O1136       O  0.09911145  0.90040846  0.54265382    -0.70300
O1137       O  0.14701997  0.94054402  0.55764480    -0.70200
O1138       O  0.14005328  0.85489634  0.51843996    -0.70400
V1139       V  0.14496482  0.88654865  0.63955415     1.35200
V1140       V  0.14349728  0.89752292  0.54010991     1.35200
C1141       C  0.14364622  0.83434398  0.56264007     0.79000
C1142       C  0.14544475  0.94980605  0.61586441     0.79100
C1143       C  0.08493515  0.89172807  0.59423542     0.78900
C1144       C  0.20342249  0.89231101  0.58686012     0.78900
O1145       O  0.34449207  0.39409584  0.51129763    -0.70200
O1146       O  0.43121249  0.39598625  0.72148189    -0.70500
O1147       O  0.38889181  0.35087702  0.49269854    -0.70300
O1148       O  0.38673636  0.43872095  0.48885419    -0.70300
O1149       O  0.39943946  0.43997015  0.59150275    -0.70300
O1150       O  0.39709855  0.35102654  0.59756681    -0.70300
O1151       O  0.44135824  0.39411280  0.57550960    -0.70200
O1152       O  0.35537009  0.39622285  0.61486671    -0.70400
V1153       V  0.38801161  0.39490700  0.49311621     1.35200
V1154       V  0.39815593  0.39540171  0.59289610     1.35200
C1155       C  0.33525703  0.39507377  0.57001611     0.79000
C1156       C  0.45104214  0.39458986  0.51720311     0.79100
C1157       C  0.39315531  0.33593618  0.54554133     0.78900
C1158       C  0.39273105  0.45445024  0.53889799     0.78900
O1159       O  0.19518295  0.39436049  0.69521720    -0.70200
O1160       O  0.10822704  0.39441344  0.73269699    -0.70500
O1161       O  0.15094539  0.35044923  0.71283822    -0.70300
O1162       O  0.15191709  0.43865850  0.71639796    -0.70300
O1163       O  0.14192956  0.44092922  0.61224517    -0.70300
O1164       O  0.14196480  0.35216448  0.60826296    -0.70300
O1165       O  0.09870231  0.39629779  0.62841887    -0.70200
O1166       O  0.18492335  0.39731198  0.59132082    -0.70400
V1167       V  0.15149739  0.39455679  0.71224203     1.35200
V1168       V  0.14204613  0.39654976  0.61210453     1.35200
C1169       C  0.20478516  0.39602125  0.63668119     0.79000
C1170       C  0.08868116  0.39556737  0.68649250     0.79100
C1171       C  0.14622446  0.33626861  0.66018663     0.78900
C1172       C  0.14651177  0.45480515  0.66547479     0.78900
O1173       O  0.34562455  0.13882812  0.56402943    -0.70200
O1174       O  0.43197477  0.14337970  0.60706502    -0.70500
O1175       O  0.38626718  0.18526770  0.58752863    -0.70300
O1176       O  0.39144391  0.09734420  0.58455114    -0.70300
O1177       O  0.40011117  0.09908955  0.72981834    -0.70300
O1178       O  0.40021143  0.18773990  0.73554621    -0.70300
O1179       O  0.44300015  0.14355441  0.75339926    -0.70200
O1180       O  0.35722436  0.14401479  0.71106604    -0.70400
V1181       V  0.38896206  0.14124539  0.58380815     1.35200
V1182       V  0.39989801  0.14347934  0.73441986     1.35200
C1183       C  0.33673909  0.14141848  0.75512389     0.79000
C1184       C  0.45220423  0.14413570  0.56204003     0.79100
C1185       C  0.39309954  0.20161272  0.53757486     0.78900
C1186       C  0.39663879  0.08322199  0.53205386     0.78900
O1187       O  0.19710842  0.14436189  0.62742559    -0.70200
O1188       O  0.11038436  0.14346850  0.58647455    -0.70500
O1189       O  0.15320858  0.18771094  0.60961535    -0.70300
O1190       O  0.15468495  0.09983135  0.60296894    -0.70300
O1191       O  0.14306357  0.09634646  0.70612396    -0.70300
O1192       O  0.14241158  0.18526326  0.71324157    -0.70300
O1193       O  0.09993189  0.14053092  0.69026607    -0.70200
O1194       O  0.18581480  0.14051390  0.73073145    -0.70400
V1195       V  0.15362297  0.14374419  0.60863543     1.35200
V1196       V  0.14304093  0.14081007  0.70812491     1.35200
C1197       C  0.20616165  0.14227046  0.68624901     0.79000
C1198       C  0.09039003  0.14167657  0.63194475     0.79100
C1199       C  0.14768577  0.20162160  0.66217996     0.78900
C1200       C  0.14911111  0.08298718  0.65286694     0.78900
O1201       O  0.64717609  0.34367177  0.75632140    -0.70200
O1202       O  0.64251454  0.43022355  0.54589217    -0.70500
O1203       O  0.60089339  0.38395426  0.52958591    -0.70300
O1204       O  0.68866403  0.38996104  0.77390554    -0.70300
O1205       O  0.68674392  0.39533609  0.66815965    -0.70300
O1206       O  0.59822432  0.40060503  0.67899751    -0.70300
O1207       O  0.64609627  0.44087599  0.69200860    -0.70200
O1208       O  0.63903773  0.35514251  0.65399901    -0.70400
V1209       V  0.64472680  0.38710082  0.52461074     1.35200
V1210       V  0.64253938  0.39781737  0.67509899     1.35200
C1211       C  0.64294570  0.33467406  0.69824226     0.79000
C1212       C  0.64497886  0.45032167  0.75013139     0.79100
C1213       C  0.58442150  0.39206651  0.73110006     0.78900
C1214       C  0.70273895  0.39293247  0.71999484     0.78900
O1215       O  0.64422978  0.19620376  0.56963475    -0.70200
O1216       O  0.64605122  0.10993137  0.52706803    -0.70500
O1217       O  0.60141280  0.15248480  0.54631455    -0.70300
O1218       O  0.68934801  0.15414457  0.54922757    -0.70300
O1219       O  0.68903578  0.14116048  0.65221550    -0.70300
O1220       O  0.60006964  0.14067662  0.64985790    -0.70300
O1221       O  0.64518964  0.09820521  0.63073788    -0.70200
O1222       O  0.64468048  0.18373200  0.67293923    -0.70400
V1223       V  0.64526461  0.15293257  0.55007714     1.35200
V1224       V  0.64467129  0.14117591  0.64945438     1.35200
C1225       C  0.64440591  0.20458576  0.62869982     0.79000
C1226       C  0.64625845  0.08938242  0.57222200     0.79100
C1227       C  0.58561309  0.14682795  0.59719203     0.78900
C1228       C  0.70433080  0.14778560  0.60082050     0.78900
O1229       O  0.89925597  0.34429668  0.69098214    -0.70200
O1230       O  0.89334176  0.43088398  0.64861268    -0.70500
O1231       O  0.94004723  0.39068729  0.66686061    -0.70300
O1232       O  0.85223581  0.38458089  0.67148476    -0.70300
O1233       O  0.85250737  0.40051746  0.52163457    -0.70300
O1234       O  0.94111869  0.39563294  0.52240968    -0.70300
O1235       O  0.89959445  0.44098701  0.50146913    -0.70200
O1236       O  0.89405481  0.35511045  0.54376356    -0.70400
V1237       V  0.89620761  0.38772105  0.67131862     1.35200
V1238       V  0.89677059  0.39786263  0.52052591     1.35200
C1239       C  0.89676245  0.33499243  0.49983594     0.79000
C1240       C  0.89679860  0.45072197  0.69319866     0.79100
C1241       C  0.95560251  0.39372850  0.71873104     0.78900
C1242       C  0.83721955  0.39259385  0.72153593     0.78900
O1243       O  0.89710570  0.19476787  0.62956107    -0.70200
O1244       O  0.89858118  0.10774606  0.66936316    -0.70500
O1245       O  0.94199401  0.15186550  0.65033337    -0.70300
O1246       O  0.85383580  0.15018018  0.64976943    -0.70300
O1247       O  0.85406786  0.14436404  0.54442919    -0.70300
O1248       O  0.94259557  0.13904834  0.54790249    -0.70300
O1249       O  0.89513512  0.09851477  0.56549831    -0.70200
O1250       O  0.90141867  0.18464622  0.52624667    -0.70400
V1251       V  0.89793560  0.15107753  0.64779435     1.35200
V1252       V  0.89831647  0.14179311  0.54797642     1.35200
C1253       C  0.89950108  0.20445663  0.57093321     0.79000
C1254       C  0.89611344  0.08833809  0.62376660     0.79100
C1255       C  0.95728106  0.14478748  0.59997716     0.78900
C1256       C  0.83890615  0.14733337  0.59702659     0.78900
O1257       O  0.69526282  0.64245096  0.50006519    -0.70200
O1258       O  0.60855054  0.64479697  0.70975506    -0.70500
O1259       O  0.65312617  0.68783257  0.48013103    -0.70300
O1260       O  0.65116189  0.59974390  0.47852300    -0.70300
O1261       O  0.64325567  0.59812058  0.58337441    -0.70300
O1262       O  0.63893594  0.68701709  0.58197248    -0.70300
O1263       O  0.59830616  0.64010763  0.56340087    -0.70200
O1264       O  0.68411020  0.64498854  0.60340016    -0.70400
V1265       V  0.65180569  0.64371244  0.48155268     1.35200
V1266       V  0.64136485  0.64261587  0.58111578     1.35200
C1267       C  0.70438148  0.64378694  0.55881700     0.79000
C1268       C  0.58865653  0.64196188  0.50520258     0.79100
C1269       C  0.64587321  0.70260648  0.53077380     0.78900
C1270       C  0.64761646  0.58381649  0.53047280     0.78900
O1271       O  0.84430070  0.64377167  0.68530293    -0.70200
O1272       O  0.93113790  0.64178643  0.72386781    -0.70500
O1273       O  0.88893810  0.68671065  0.70451821    -0.70300
O1274       O  0.88695004  0.59868776  0.70598604    -0.70300
O1275       O  0.90043969  0.59855881  0.60346600    -0.70300
O1276       O  0.89513368  0.68710629  0.59903747    -0.70300
O1277       O  0.94094042  0.64596534  0.61991362    -0.70200
O1278       O  0.85488512  0.63983573  0.58193053    -0.70400
V1279       V  0.88790531  0.64269724  0.70293962     1.35200
V1280       V  0.89768131  0.64284682  0.60301047     1.35200
C1281       C  0.83485510  0.64159417  0.62686714     0.79000
C1282       C  0.95083160  0.64450859  0.67807968     0.79100
C1283       C  0.89205811  0.70192499  0.65161460     0.78900
C1284       C  0.89437063  0.58365841  0.65582859     0.78900
O1285       O  0.69615629  0.89317038  0.56233889    -0.70200
O1286       O  0.60956194  0.89681427  0.60289159    -0.70500
O1287       O  0.65013514  0.85118086  0.58035829    -0.70300
O1288       O  0.65554712  0.93917566  0.58596999    -0.70300
O1289       O  0.64190731  0.94266318  0.73395109    -0.70300
O1290       O  0.64264221  0.85385169  0.72534760    -0.70300
O1291       O  0.59924507  0.89745175  0.74892479    -0.70200
O1292       O  0.68524433  0.89954971  0.70934072    -0.70400
V1293       V  0.65269371  0.89519891  0.58092238     1.35200
V1294       V  0.64244730  0.89824454  0.73134239     1.35200
C1295       C  0.70541531  0.89637282  0.75378518     0.79000
C1296       C  0.58964949  0.89737936  0.55728625     0.79100
C1297       C  0.64588554  0.83746433  0.52698520     0.78900
C1298       C  0.64913641  0.95605388  0.53658828     0.78900
O1299       O  0.84477185  0.89645504  0.62608619    -0.70200
O1300       O  0.93130813  0.89549632  0.58398485    -0.70500
O1301       O  0.88705747  0.85180620  0.60490011    -0.70300
O1302       O  0.88850076  0.93970606  0.60421830    -0.70300
O1303       O  0.89933643  0.93964040  0.70788913    -0.70300
O1304       O  0.89907857  0.85080282  0.70799007    -0.70300
O1305       O  0.94208438  0.89504230  0.68774107    -0.70200
O1306       O  0.85627771  0.89469610  0.72947143    -0.70400
V1307       V  0.88815799  0.89584219  0.60680198     1.35200
V1308       V  0.89899343  0.89513380  0.70628443     1.35200
C1309       C  0.83586673  0.89550125  0.68509370     0.79000
C1310       C  0.95142144  0.89475848  0.62922969     0.79100
C1311       C  0.89287159  0.83620100  0.65626534     0.78900
C1312       C  0.89359120  0.95476638  0.65560326     0.78900
C1313       C  0.78149961  0.91419275  0.66678624     0.25100
C1314       C  0.80248988  0.89546384  0.70221415    -0.23000
C1315       C  0.79144679  0.87716120  0.75513095     0.20000
C1316       C  0.75992130  0.87767678  0.77248557     0.25100
C1317       C  0.73889192  0.89640969  0.73703236    -0.22900
C1318       C  0.74998817  0.91469974  0.68406301     0.20000
F1319       F  0.73047727  0.93375293  0.65001216    -0.12900
F1320       F  0.79165021  0.93268487  0.61652872    -0.15200
F1321       F  0.74982372  0.85917016  0.57275713    -0.15200
F1322       F  0.81100596  0.85798609  0.78875627    -0.12900
C1323       C  0.87536936  0.75335939  0.60564552     0.25100
C1324       C  0.89244896  0.73615016  0.65202895    -0.23000
C1325       C  0.90955160  0.75184406  0.70003940     0.20000
C1326       C  0.90969452  0.78438088  0.70157344     0.25100
C1327       C  0.89250278  0.80177325  0.65530912    -0.22900
C1328       C  0.87527464  0.78591389  0.60734668     0.20000
F1329       F  0.85785584  0.80184681  0.56271314    -0.12900
F1330       F  0.85803540  0.73860867  0.55988741    -0.15200
F1331       F  0.92719499  0.79881941  0.74749511    -0.15200
F1332       F  0.92670438  0.73562478  0.74469898    -0.12900
C1333       C  0.62803858  0.75380112  0.57543240     0.25100
C1334       C  0.64555953  0.73721154  0.52946570    -0.23000
C1335       C  0.66262363  0.75408493  0.48150275     0.20000
C1336       C  0.66215857  0.78671670  0.47969779     0.25100
C1337       C  0.64488033  0.80311501  0.52596973    -0.22900
C1338       C  0.62783732  0.78643147  0.57381577     0.20000
F1339       F  0.61059600  0.80180579  0.61858999    -0.12900
F1340       F  0.61073480  0.73850338  0.62149417    -0.15200
F1341       F  0.67955942  0.80232022  0.68425360    -0.15200
F1342       F  0.68040938  0.73907171  0.68713663    -0.12900
C1343       C  0.79010277  0.62370742  0.55849261     0.25100
C1344       C  0.80134131  0.64156514  0.61068878    -0.23000
C1345       C  0.78051982  0.66037605  0.64522141     0.20000
C1346       C  0.74903139  0.66139825  0.62773467     0.25100
C1347       C  0.73781126  0.64355003  0.57555135    -0.22900
C1348       C  0.75861359  0.62471682  0.54104961     0.20000
F1349       F  0.74829541  0.60662233  0.74153922    -0.12900
F1350       F  0.80947094  0.60464777  0.52534248    -0.15200
F1351       F  0.72967969  0.68059452  0.66056052    -0.15200
F1352       F  0.79082047  0.67853245  0.69460638    -0.12900
C1353       C  0.91031978  0.00751918  0.69550140     0.25100
C1354       C  0.89247229  0.98916435  0.65293323    -0.23000
C1355       C  0.87430836  0.00397136  0.60439080     0.20000
C1356       C  0.87504987  0.03623890  0.59650054     0.25100
C1357       C  0.89384496  0.05454835  0.63702068    -0.22900
C1358       C  0.91101271  0.04006575  0.68753985     0.20000
F1359       F  0.92962544  0.05720039  0.72697143    -0.12900
F1360       F  0.92816394  0.99395141  0.74269727    -0.15200
F1361       F  0.85726168  0.04963288  0.54892720    -0.15200
F1362       F  0.85578545  0.98718639  0.56402490    -0.12900
C1363       C  0.88039305  0.49786999  0.62739956     0.25100
C1364       C  0.89788231  0.48451456  0.67883484    -0.23000
C1365       C  0.91564690  0.50401012  0.71923243     0.20000
C1366       C  0.91494375  0.53624653  0.71020226     0.25100
C1367       C  0.89684306  0.54961495  0.66018452    -0.22900
C1368       C  0.88000422  0.53031600  0.61797256     0.20000
F1369       F  0.86196608  0.54295367  0.56998750    -0.12900
F1370       F  0.86251712  0.47973121  0.58846872    -0.15200
F1371       F  0.93190637  0.55453852  0.75064246    -0.15200
F1372       F  0.93371735  0.49187076  0.51776239    -0.12900
C1373       C  0.88058048  0.25861525  0.58877457     0.25100
C1374       C  0.89952693  0.23799144  0.55417720    -0.23000
C1375       C  0.91739212  0.24941275  0.50118177     0.20000
C1376       C  0.91627476  0.28093725  0.48302026     0.25100
C1377       C  0.89727684  0.30155625  0.51753115    -0.22900
C1378       C  0.87943372  0.29013480  0.57056971     0.20000
F1379       F  0.86012974  0.30930591  0.60360300    -0.12900
F1380       F  0.86235982  0.24807350  0.63882358    -0.15200
F1381       F  0.93437276  0.29142539  0.68273986    -0.15200
F1382       F  0.93649058  0.23017073  0.46780418    -0.12900
C1383       C  0.66801608  0.00459707  0.59026059     0.25100
C1384       C  0.64991027  0.99051474  0.54140589    -0.23000
C1385       C  0.63172339  0.00962173  0.49981202     0.20000
C1386       C  0.63095304  0.04201328  0.50846416     0.25100
C1387       C  0.64845163  0.05576727  0.55851914    -0.22900
C1388       C  0.66727573  0.03679672  0.59864443     0.20000
F1389       F  0.68511365  0.04951352  0.64626852    -0.12900
F1390       F  0.68651910  0.98721007  0.63030939    -0.15200
F1391       F  0.61182800  0.05965045  0.47033242    -0.15200
F1392       F  0.61360491  0.99687961  0.70271400    -0.12900
C1393       C  0.75567851  0.13048593  0.64721864     0.25100
C1394       C  0.73884802  0.14791567  0.60035589    -0.23000
C1395       C  0.75537249  0.16499992  0.55195707     0.20000
C1396       C  0.78794624  0.16455449  0.55044047     0.25100
C1397       C  0.80460165  0.14728588  0.59746635    -0.22900
C1398       C  0.78825702  0.13029503  0.64588457     0.20000
F1399       F  0.80387448  0.11285711  0.69105173    -0.12900
F1400       F  0.74065484  0.11303313  0.69351226    -0.15200
F1401       F  0.80325754  0.18169038  0.75404809    -0.15200
F1402       F  0.74007004  0.18258396  0.50656755    -0.12900
C1403       C  0.66603800  0.50294127  0.72209267     0.25100
C1404       C  0.64720152  0.48406651  0.76285089    -0.23000
C1405       C  0.62994053  0.49800744  0.56295091     0.20000
C1406       C  0.63071976  0.53048420  0.57052791     0.25100
C1407       C  0.64869543  0.54939423  0.52791470    -0.22900
C1408       C  0.66675890  0.53517769  0.72946936     0.20000
F1409       F  0.68520549  0.55253788  0.68883060    -0.12900
F1410       F  0.68390848  0.49013113  0.67481430    -0.15200
F1411       F  0.61274869  0.54350424  0.61731197    -0.15200
F1412       F  0.61111252  0.48044409  0.60230421    -0.12900
C1413       C  0.75348364  0.41074506  0.51540970     0.25100
C1414       C  0.73699724  0.39364265  0.71857191    -0.23000
C1415       C  0.75348007  0.37637224  0.67247429     0.20000
C1416       C  0.78604877  0.37584056  0.67368664     0.25100
C1417       C  0.80271687  0.39286344  0.72081665    -0.22900
C1418       C  0.78603417  0.41049676  0.51640507     0.20000
F1419       F  0.80114816  0.42788734  0.56146664    -0.12900
F1420       F  0.73800596  0.42814739  0.55969676    -0.15200
F1421       F  0.80117911  0.35813761  0.62942972    -0.15200
F1422       F  0.73801716  0.35913424  0.62766810    -0.12900
C1423       C  0.66247557  0.24855203  0.69834906     0.25100
C1424       C  0.64420338  0.23785947  0.64609792    -0.23000
C1425       C  0.62531341  0.25909027  0.61161830     0.20000
C1426       C  0.62460482  0.29046982  0.62920314     0.25100
C1427       C  0.64282677  0.30121966  0.68161840    -0.22900
C1428       C  0.66172764  0.27992484  0.71610402     0.20000
F1429       F  0.68024695  0.28963859  0.51569820    -0.12900
F1430       F  0.68195379  0.22883152  0.73074447    -0.15200
F1431       F  0.60550967  0.31020132  0.59581351    -0.15200
F1432       F  0.60694773  0.24930425  0.56184599    -0.12900
C1433       C  0.00478003  0.12426689  0.65370993     0.25100
C1434       C  0.99137872  0.14237604  0.60353366    -0.23000
C1435       C  0.01072163  0.15899486  0.55970539     0.20000
C1436       C  0.04319359  0.15830388  0.56750704     0.25100
C1437       C  0.05657433  0.14068924  0.61884734    -0.22900
C1438       C  0.03704433  0.12326032  0.66109302     0.20000
F1439       F  0.04921882  0.10524598  0.70990805    -0.12900
F1440       F  0.98651250  0.10751948  0.69579418    -0.15200
F1441       F  0.06135153  0.17608534  0.52719230    -0.15200
F1442       F  0.99811513  0.17710599  0.51160344    -0.12900
C1443       C  0.53221107  0.12980072  0.63599688     0.25100
C1444       C  0.55115675  0.14776724  0.59344278    -0.23000
C1445       C  0.53691320  0.16590384  0.54389906     0.20000
C1446       C  0.50472310  0.16515578  0.53534781     0.25100
C1447       C  0.48586642  0.14637575  0.57609994    -0.22900
C1448       C  0.49974810  0.12907139  0.62726794     0.20000
F1449       F  0.48214275  0.11021099  0.66649707    -0.12900
F1450       F  0.54514752  0.11187228  0.68399511    -0.15200
F1451       F  0.49191615  0.18294003  0.73685246    -0.15200
F1452       F  0.55417079  0.18442499  0.50316991    -0.12900
C1453       C  0.28178575  0.12344697  0.52354997     0.25100
C1454       C  0.30332123  0.14164206  0.73772145    -0.23000
C1455       C  0.29270256  0.15992947  0.68448204     0.20000
C1456       C  0.26115243  0.15993429  0.66727620     0.25100
C1457       C  0.23961988  0.14178245  0.70315780    -0.22900
C1458       C  0.25023649  0.12349205  0.50639007     0.20000
F1459       F  0.23018808  0.10495016  0.54076849    -0.12900
F1460       F  0.29137224  0.10502443  0.57422373    -0.15200
F1461       F  0.25152820  0.17839883  0.61669601    -0.15200
F1462       F  0.31270966  0.17861076  0.65029356    -0.12900
C1463       C  0.00879747  0.37893519  0.75879153     0.25100
C1464       C  0.98975569  0.39578081  0.71510211    -0.23000
C1465       C  0.00351491  0.41370769  0.66470832     0.20000
C1466       C  0.03574780  0.41415712  0.65681244     0.25100
C1467       C  0.05488420  0.39651549  0.69892899    -0.22900
C1468       C  0.04123530  0.37919653  0.75060488     0.20000
F1469       F  0.05909465  0.36139639  0.54110623    -0.12900
F1470       F  0.99592687  0.36106812  0.55720594    -0.15200
F1471       F  0.04828837  0.43197140  0.60787555    -0.15200
F1472       F  0.98564879  0.43087746  0.62293418    -0.12900
C1473       C  0.12932833  0.28498445  0.70798632     0.25100
C1474       C  0.14597859  0.30195108  0.65993860    -0.23000
C1475       C  0.16335920  0.28590910  0.61335285     0.20000
C1476       C  0.16423200  0.25333850  0.61480900     0.25100
C1477       C  0.14745346  0.23615243  0.66269228    -0.22900
C1478       C  0.12993562  0.25234008  0.70923600     0.20000
F1479       F  0.11285569  0.23662482  0.75505106    -0.12900
F1480       F  0.11193396  0.30006972  0.75293296    -0.15200
F1481       F  0.18200883  0.23866315  0.56990609    -0.15200
F1482       F  0.18031027  0.30183178  0.56761078    -0.12900
C1483       C  0.49873813  0.41022840  0.70301604     0.25100
C1484       C  0.48476228  0.39282379  0.50408335    -0.23000
C1485       C  0.50348804  0.37415781  0.54496893     0.20000
C1486       C  0.53567115  0.37345833  0.53632199     0.25100
C1487       C  0.54999786  0.39151446  0.73648423    -0.22900
C1488       C  0.53114662  0.40959795  0.69425548     0.20000
F1489       F  0.54409769  0.42757464  0.64611214    -0.12900
F1490       F  0.48124430  0.42892054  0.66357720    -0.15200
F1491       F  0.55276202  0.35500973  0.57710129    -0.15200
F1492       F  0.49055446  0.35629304  0.59338518    -0.12900
C1493       C  0.37660292  0.28418229  0.59146895     0.25100
C1494       C  0.39379570  0.30170027  0.54543670    -0.23000
C1495       C  0.41085834  0.28631951  0.49719191     0.20000
C1496       C  0.41070401  0.25381383  0.49474770     0.25100
C1497       C  0.39317462  0.23606448  0.54024063    -0.22900
C1498       C  0.37617157  0.25160656  0.58881982     0.20000
F1499       F  0.35862958  0.23537208  0.63304488    -0.12900
F1500       F  0.35937464  0.29865788  0.63757479    -0.15200
F1501       F  0.42816839  0.23977718  0.69842465    -0.15200
F1502       F  0.42813682  0.30284063  0.45292178    -0.12900
C1503       C  0.25918435  0.37761240  0.65669578     0.25100
C1504       C  0.23829935  0.39628543  0.62080663    -0.23000
C1505       C  0.24948782  0.41438392  0.56765684     0.20000
C1506       C  0.28101878  0.41371847  0.55057361     0.25100
C1507       C  0.30185647  0.39502163  0.58641978    -0.22900
C1508       C  0.29071424  0.37693474  0.63952655     0.20000
F1509       F  0.31019238  0.35779431  0.67344123    -0.12900
F1510       F  0.24890565  0.35926108  0.70704729    -0.15200
F1511       F  0.29134998  0.43199961  0.50014641    -0.15200
F1512       F  0.23002511  0.43336151  0.53326313    -0.12900
C1513       C  0.13021801  0.99701641  0.67982695     0.25100
C1514       C  0.14753985  0.98347834  0.62933550    -0.23000
C1515       C  0.16650800  0.00264046  0.58946262     0.20000
C1516       C  0.16751443  0.03477106  0.59846266     0.25100
C1517       C  0.14959422  0.04860125  0.64770949    -0.22900
C1518       C  0.13126533  0.02935947  0.68903754     0.20000
F1519       F  0.11330655  0.04193395  0.73639777    -0.12900
F1520       F  0.11115189  0.97919644  0.71816228    -0.15200
F1521       F  0.18614081  0.05235712  0.55866814    -0.15200
F1522       F  0.18433227  0.99021098  0.54164990    -0.12900
C1523       C  0.03174465  0.90946245  0.55654869     0.25100
C1524       C  0.05043979  0.89116791  0.59874100    -0.23000
C1525       C  0.03587251  0.87294597  0.64799194     0.20000
C1526       C  0.00367423  0.87377083  0.65632733     0.25100
C1527       C  0.98510934  0.89269839  0.61565492    -0.22900
C1528       C  0.99928390  0.91021174  0.56500911     0.20000
F1529       F  0.98195535  0.92921896  0.52591983    -0.12900
F1530       F  0.04490291  0.92757796  0.50888759    -0.15200
F1531       F  0.99055593  0.85583759  0.70441194    -0.15200
F1532       F  0.05275982  0.85423308  0.68861996    -0.12900
C1533       C  0.16087792  0.50859867  0.62561033     0.25100
C1534       C  0.14449699  0.48896430  0.66939345    -0.23000
C1535       C  0.12635218  0.50213035  0.71876354     0.20000
C1536       C  0.12507009  0.53440621  0.72537236     0.25100
C1537       C  0.14222995  0.55423771  0.68312175    -0.22900
C1538       C  0.15990754  0.54107612  0.63262975     0.20000
F1539       F  0.17733941  0.55947118  0.59209363    -0.12900
F1540       F  0.17889175  0.49628083  0.57803917    -0.15200
F1541       F  0.10693585  0.54627589  0.52329583    -0.15200
F1542       F  0.10961469  0.48364207  0.51049725    -0.12900
C1543       C  0.03071819  0.63006505  0.75217929     0.25100
C1544       C  0.04979748  0.64790520  0.70976575    -0.23000
C1545       C  0.03583995  0.66566308  0.65935141     0.20000
C1546       C  0.00365719  0.66491592  0.65025868     0.25100
C1547       C  0.98461375  0.64639478  0.69125626    -0.22900
C1548       C  0.99833653  0.62928080  0.74291931     0.20000
F1549       F  0.98062448  0.61070730  0.53251915    -0.12900
F1550       F  0.04348504  0.61230447  0.55064118    -0.15200
F1551       F  0.99107394  0.68253055  0.60127747    -0.15200
F1552       F  0.05338521  0.68386055  0.61853784    -0.12900
C1553       C  0.16226127  0.77963133  0.58089415     0.25100
C1554       C  0.14355065  0.80092238  0.54596258    -0.23000
C1555       C  0.12533869  0.79013719  0.49358612     0.20000
C1556       C  0.12579533  0.75867198  0.47660148     0.25100
C1557       C  0.14437522  0.73740684  0.51176611    -0.22900
C1558       C  0.16269483  0.74817143  0.56389002     0.20000
F1559       F  0.18175641  0.72837455  0.59721434    -0.12900
F1560       F  0.18078722  0.78940028  0.63041693    -0.15200
F1561       F  0.10735243  0.74882815  0.67699392    -0.15200
F1562       F  0.10638049  0.80988576  0.45989429    -0.12900
C1563       C  0.41787355  0.00272161  0.59059787     0.25100
C1564       C  0.39973105  0.98377390  0.54979762    -0.23000
C1565       C  0.38246105  0.99775394  0.49875690     0.20000
C1566       C  0.38238845  0.03030862  0.49060279     0.25100
C1567       C  0.39936851  0.04908881  0.53368124    -0.22900
C1568       C  0.41753431  0.03502003  0.58281027     0.20000
F1569       F  0.43479266  0.05269933  0.62391975    -0.12900
F1570       F  0.43584464  0.98997195  0.63862937    -0.15200
F1571       F  0.36438197  0.04353049  0.44326491    -0.15200
F1572       F  0.36438683  0.98013228  0.45919534    -0.12900
C1573       C  0.54253739  0.88039458  0.62193307     0.25100
C1574       C  0.55588387  0.89811693  0.57050162    -0.23000
C1575       C  0.53640144  0.91542527  0.52848654     0.20000
C1576       C  0.50415587  0.91422288  0.53617138     0.25100
C1577       C  0.49070370  0.89587966  0.58631503    -0.22900
C1578       C  0.51008140  0.87941931  0.62999939     0.20000
F1579       F  0.49754913  0.86115574  0.67815799    -0.12900
F1580       F  0.56072133  0.86273425  0.66203624    -0.15200
F1581       F  0.48597555  0.93103442  0.49436032    -0.15200
F1582       F  0.54861986  0.93352348  0.47964277    -0.12900
C1583       C  0.28660479  0.90931972  0.63575526     0.25100
C1584       C  0.30351270  0.89184646  0.59024448    -0.23000
C1585       C  0.28702287  0.87489360  0.54271201     0.20000
C1586       C  0.25444580  0.87550289  0.54076447     0.25100
C1587       C  0.23773810  0.89278286  0.58651205    -0.22900
C1588       C  0.25404041  0.90964764  0.63402393     0.20000
F1589       F  0.23837949  0.92692104  0.67824878    -0.12900
F1590       F  0.30152084  0.92651208  0.68142865    -0.15200
F1591       F  0.23917792  0.85837669  0.74548604    -0.15200
F1592       F  0.30233694  0.85722140  0.49867662    -0.12900
C1593       C  0.37376577  0.53525432  0.47580165     0.25100
C1594       C  0.39276857  0.55409518  0.76479238    -0.23000
C1595       C  0.41042588  0.54020731  0.56531904     0.20000
C1596       C  0.40985735  0.50775114  0.57501682     0.25100
C1597       C  0.39162088  0.48884792  0.53423897    -0.22900
C1598       C  0.37311359  0.50306703  0.48545310     0.20000
F1599       F  0.35429687  0.48579203  0.44660991    -0.12900
F1600       F  0.35561589  0.54806623  0.42814418    -0.15200
F1601       F  0.42818598  0.49478660  0.62212098    -0.15200
F1602       F  0.42937986  0.55784618  0.85304122    -0.12900
C1603       C  0.50319556  0.62383828  0.52714769     0.25100
C1604       C  0.48964683  0.64187505  0.72704866    -0.23000
C1605       C  0.50882870  0.65855397  0.68304312     0.20000
C1606       C  0.54129923  0.65809727  0.69074150     0.25100
C1607       C  0.55484457  0.64065901  0.49217492    -0.22900
C1608       C  0.53546444  0.62305322  0.53443259     0.20000
F1609       F  0.54777360  0.60509931  0.58318869    -0.12900
F1610       F  0.48505375  0.60698258  0.56928707    -0.15200
F1611       F  0.55929459  0.67590403  0.65015416    -0.15200
F1612       F  0.49605634  0.67649852  0.63486062    -0.12900
C1613       C  0.28639463  0.66350485  0.67528325     0.25100
C1614       C  0.30295834  0.64627642  0.72244170    -0.23000
C1615       C  0.28655690  0.62908110  0.52049328     0.20000
C1616       C  0.25394802  0.62893113  0.52106804     0.25100
C1617       C  0.23721053  0.64623063  0.72382191    -0.22900
C1618       C  0.25385062  0.66364942  0.67608458     0.20000
F1619       F  0.23868996  0.68127190  0.63054223    -0.12900
F1620       F  0.30177044  0.68088049  0.62936240    -0.15200
F1621       F  0.23882462  0.61132261  0.56694870    -0.15200
F1622       F  0.30214123  0.61173968  0.56586696    -0.12900
C1623       C  0.37962156  0.75815519  0.70983909     0.25100
C1624       C  0.39826733  0.73707328  0.67575354    -0.23000
C1625       C  0.41647735  0.74804171  0.62284581     0.20000
C1626       C  0.41596773  0.77955732  0.60423284     0.25100
C1627       C  0.39727954  0.80063568  0.63827357    -0.22900
C1628       C  0.37909203  0.78964868  0.69121508     0.20000
F1629       F  0.36007059  0.80925125  0.72384817    -0.12900
F1630       F  0.36116113  0.74811360  0.75993335    -0.15200
F1631       F  0.43439704  0.78959819  0.55409408    -0.15200
F1632       F  0.43542548  0.72838258  0.59017608    -0.12900
O1633       O  0.39537694  0.69433244  0.00233471    -0.70200
O1634       O  0.39721087  0.60758928  0.79502165    -0.70500
O1635       O  0.44040316  0.65168317  0.77403838    -0.70300
O1636       O  0.35222972  0.64970594  0.02450128    -0.70300
O1637       O  0.35230324  0.64319896  0.91934983    -0.70300
O1638       O  0.44077889  0.63799802  0.92211538    -0.70300
O1639       O  0.39342604  0.59752151  0.94156833    -0.70200
O1640       O  0.39959801  0.68345600  0.89937540    -0.70400
V1641       V  0.39634760  0.65075025  0.77201665     1.35200
V1642       V  0.39652610  0.64071302  0.92254658     1.35200
C1643       C  0.39782698  0.70361274  0.94343326     0.79000
C1644       C  0.39469871  0.58780693  0.00016085     0.79100
C1645       C  0.45556304  0.64420874  0.97379784     0.78900
C1646       C  0.33723056  0.64643634  0.97196819     0.78900
O1647       O  0.40009084  0.84341618  0.81151815    -0.70200
O1648       O  0.39456706  0.93016589  0.76907680    -0.70500
O1649       O  0.44110379  0.88985469  0.78784063    -0.70300
O1650       O  0.35322619  0.88384426  0.79140536    -0.70300
O1651       O  0.35321425  0.89958513  0.89168843    -0.70300
O1652       O  0.44191705  0.89493822  0.89335654    -0.70300
O1653       O  0.40036237  0.94013775  0.87210902    -0.70200
O1654       O  0.39478862  0.85427538  0.91424039    -0.70400
V1655       V  0.39722759  0.88691923  0.79179876     1.35200
V1656       V  0.39752648  0.89702221  0.89103286     1.35200
C1657       C  0.39737417  0.83411396  0.87037135     0.79000
C1658       C  0.39799215  0.94995671  0.81380535     0.79100
C1659       C  0.45654125  0.89316102  0.83979774     0.78900
C1660       C  0.33805131  0.89170977  0.84136536     0.78900
O1661       O  0.14277960  0.69496025  0.93713984    -0.70200
O1662       O  0.14576613  0.60816246  0.89932060    -0.70500
O1663       O  0.10042632  0.65063328  0.91378841    -0.70300
O1664       O  0.18823999  0.65300704  0.92127417    -0.70300
O1665       O  0.18686777  0.63860465  0.77343610    -0.70300
O1666       O  0.09804510  0.64262863  0.76876193    -0.70300
O1667       O  0.14032259  0.59774627  0.75292018    -0.70200
O1668       O  0.14469375  0.68359017  0.79090926    -0.70400
V1669       V  0.14427173  0.65145444  0.91982063     1.35200
V1670       V  0.14251585  0.64084850  0.76958805     1.35200
C1671       C  0.14397278  0.70397663  0.74575682     0.79000
C1672       C  0.14280941  0.58814039  0.94516001     0.79100
C1673       C  0.08414110  0.64698413  0.96473891     0.78900
C1674       C  0.20269011  0.64587478  0.97306922     0.78900
O1675       O  0.14749845  0.84321129  0.87089711    -0.70200
O1676       O  0.14262731  0.92957093  0.91126288    -0.70500
O1677       O  0.10107667  0.88345864  0.89308908    -0.70300
O1678       O  0.18893127  0.88931977  0.89029631    -0.70300
O1679       O  0.18777336  0.89492308  0.78455706    -0.70300
O1680       O  0.09910313  0.90040776  0.79265521    -0.70300
O1681       O  0.14701014  0.94054510  0.80764897    -0.70200
O1682       O  0.14004667  0.85489811  0.76843871    -0.70400
V1683       V  0.14495697  0.88654870  0.88955484     1.35200
V1684       V  0.14348903  0.89752436  0.79011123     1.35200
C1685       C  0.14363959  0.83434540  0.81263799     0.79000
C1686       C  0.14543574  0.94980597  0.86586966     0.79100
C1687       C  0.08492721  0.89172594  0.84423510     0.78900
C1688       C  0.20341456  0.89231462  0.83686067     0.78900
O1689       O  0.34448487  0.39410924  0.76129031    -0.70200
O1690       O  0.43120659  0.39599356  0.97146049    -0.70500
O1691       O  0.38888492  0.35089159  0.74268318    -0.70300
O1692       O  0.38672856  0.43873496  0.73884983    -0.70300
O1693       O  0.39943182  0.43998167  0.84149859    -0.70300
O1694       O  0.39709388  0.35103830  0.84755080    -0.70300
O1695       O  0.44135219  0.39412642  0.82549707    -0.70200
O1696       O  0.35536397  0.39623253  0.86485921    -0.70400
V1697       V  0.38800445  0.39492134  0.74310649     1.35200
V1698       V  0.39814981  0.39541344  0.84288606     1.35200
C1699       C  0.33525029  0.39508476  0.82000919     0.79000
C1700       C  0.45103570  0.39460441  0.76719036     0.79100
C1701       C  0.39314983  0.33594949  0.79552367     0.78900
C1702       C  0.39272256  0.45446290  0.78889525     0.78900
O1703       O  0.19517547  0.39436086  0.94521355    -0.70200
O1704       O  0.10821893  0.39441129  0.98269267    -0.70500
O1705       O  0.15093898  0.35044825  0.96283621    -0.70300
O1706       O  0.15190779  0.43865727  0.96639254    -0.70300
O1707       O  0.14191828  0.44092668  0.86224047    -0.70300
O1708       O  0.14196080  0.35216222  0.85825994    -0.70300
O1709       O  0.09869464  0.39629184  0.87841424    -0.70200
O1710       O  0.18491587  0.39731322  0.84131730    -0.70400
V1711       V  0.15148958  0.39455566  0.96223825     1.35200
V1712       V  0.14203851  0.39654738  0.86210060     1.35200
C1713       C  0.20477785  0.39602314  0.88667834     0.79000
C1714       C  0.08867322  0.39556291  0.93648837     0.79100
C1715       C  0.14622001  0.33626705  0.91018429     0.78900
C1716       C  0.14650085  0.45480314  0.91546936     0.78900
O1717       O  0.34561984  0.13884331  0.81401057    -0.70200
O1718       O  0.43196991  0.14339438  0.85704884    -0.70500
O1719       O  0.38626267  0.18528268  0.83750763    -0.70300
O1720       O  0.39143837  0.09735942  0.83453768    -0.70300
O1721       O  0.40010965  0.09908854  0.97983175    -0.70300
O1722       O  0.40021196  0.18774071  0.98554523    -0.70300
O1723       O  0.44300046  0.14355418  0.00340396    -0.70200
O1724       O  0.35722417  0.14401494  0.96107229    -0.70400
V1725       V  0.38895719  0.14126045  0.83379081     1.35200
V1726       V  0.39989794  0.14347933  0.98442587     1.35200
C1727       C  0.33673898  0.14142126  0.00513054     0.79000
C1728       C  0.45219963  0.14414870  0.81202452     0.79100
C1729       C  0.39309517  0.20162685  0.78755297     0.78900
C1730       C  0.39663356  0.08323597  0.78204147     0.78900
O1731       O  0.19710732  0.14436116  0.87742978    -0.70200
O1732       O  0.11038227  0.14346438  0.83648230    -0.70500
O1733       O  0.15320564  0.18770850  0.85961772    -0.70300
O1734       O  0.15468435  0.09982914  0.85297783    -0.70300
O1735       O  0.14306359  0.09634557  0.95613343    -0.70300
O1736       O  0.14241046  0.18526213  0.96324487    -0.70300
O1737       O  0.09993095  0.14052860  0.94027452    -0.70200
O1738       O  0.18581437  0.14051405  0.98073612    -0.70400
V1739       V  0.15362135  0.14374188  0.85864113     1.35200
V1740       V  0.14304034  0.14080903  0.95813127     1.35200
C1741       C  0.20616110  0.14227050  0.93625223     0.79000
C1742       C  0.09038832  0.14167244  0.88195404     0.79100
C1743       C  0.14768345  0.20161979  0.91218204     0.78900
C1744       C  0.14911076  0.08298581  0.90287648     0.78900
O1745       O  0.64716681  0.34367038  0.00630703    -0.70200
O1746       O  0.64250864  0.43022206  0.79589342    -0.70500
O1747       O  0.60088620  0.38395524  0.77957790    -0.70300
O1748       O  0.68865525  0.38995838  0.02389479    -0.70300
O1749       O  0.68673746  0.39533245  0.91814852    -0.70300
O1750       O  0.59821839  0.40060539  0.92897794    -0.70300
O1751       O  0.64609144  0.44087461  0.94199388    -0.70200
O1752       O  0.63903007  0.35514107  0.90398407    -0.70400
V1753       V  0.64472011  0.38709969  0.77460982     1.35200
V1754       V  0.64253313  0.39781591  0.92508396     1.35200
C1755       C  0.64293729  0.33467264  0.94822761     0.79000
C1756       C  0.64497223  0.45032044  0.00011634     0.79100
C1757       C  0.58441434  0.39206657  0.98107895     0.78900
C1758       C  0.70273126  0.39292824  0.96998527     0.78900
O1759       O  0.64422687  0.19620198  0.81961948    -0.70200
O1760       O  0.64604572  0.10992924  0.77705460    -0.70500
O1761       O  0.60140876  0.15248459  0.79629983    -0.70300
O1762       O  0.68934403  0.15414098  0.79921277    -0.70300
O1763       O  0.68903155  0.14115647  0.90220044    -0.70300
O1764       O  0.60006509  0.14067794  0.89984391    -0.70300
O1765       O  0.64518273  0.09820378  0.88072477    -0.70200
O1766       O  0.64467815  0.18373073  0.92292425    -0.70400
V1767       V  0.64526053  0.15293066  0.80006280     1.35200
V1768       V  0.64466685  0.14117452  0.89944026     1.35200
C1769       C  0.64440313  0.20458429  0.87868510     0.79000
C1770       C  0.64625186  0.08938058  0.82220909     0.79100
C1771       C  0.58560881  0.14682941  0.84717840     0.78900
C1772       C  0.70432672  0.14778015  0.85080581     0.78900
O1773       O  0.89924862  0.34428711  0.94097976    -0.70200
O1774       O  0.89333162  0.43087195  0.89860031    -0.70500
O1775       O  0.94003845  0.39067764  0.91685310    -0.70300
O1776       O  0.85222710  0.38456888  0.92147884    -0.70300
O1777       O  0.85250545  0.40050629  0.77164575    -0.70300
O1778       O  0.94111756  0.39562269  0.77241246    -0.70300
O1779       O  0.89959199  0.44097711  0.75148009    -0.70200
O1780       O  0.89405387  0.35509890  0.79376737    -0.70400
V1781       V  0.89619884  0.38771025  0.92131149     1.35200
V1782       V  0.89676897  0.39785192  0.77053303     1.35200
C1783       C  0.89676064  0.33498162  0.74983836     0.79000
C1784       C  0.89678890  0.45071088  0.94318352     0.79100
C1785       C  0.95559382  0.39372065  0.96872284     0.78900
C1786       C  0.83721104  0.39258330  0.97152929     0.78900
O1787       O  0.89710191  0.19475366  0.87955882    -0.70200
O1788       O  0.89857475  0.10773072  0.91935736    -0.70500
O1789       O  0.94198922  0.15185007  0.90033756    -0.70300
O1790       O  0.85383090  0.15016575  0.89975861    -0.70300
O1791       O  0.85406650  0.14434915  0.79441845    -0.70300
O1792       O  0.94259470  0.13903622  0.79790487    -0.70300
O1793       O  0.89513506  0.09850086  0.81549101    -0.70200
O1794       O  0.90141688  0.18463312  0.77624430    -0.70400
V1795       V  0.89793076  0.15106271  0.89779067     1.35200
V1796       V  0.89831536  0.14177954  0.79797214     1.35200
C1797       C  0.89949832  0.20444326  0.82093164     0.79000
C1798       C  0.89611004  0.08832325  0.87375954     0.79100
C1799       C  0.95727831  0.14477406  0.84998251     0.78900
C1800       C  0.83890300  0.14731857  0.84701338     0.78900
O1801       O  0.69525238  0.64244644  0.75006689    -0.70200
O1802       O  0.60854597  0.64480053  0.95975604    -0.70500
O1803       O  0.65311741  0.68782999  0.73013361    -0.70300
O1804       O  0.65114995  0.59974146  0.72852706    -0.70300
O1805       O  0.64324437  0.59811874  0.83337870    -0.70300
O1806       O  0.63892770  0.68701549  0.83197533    -0.70300
O1807       O  0.59829633  0.64010749  0.81340561    -0.70200
O1808       O  0.68410064  0.64498489  0.85340215    -0.70400
V1809       V  0.65179532  0.64370988  0.73155594     1.35200
V1810       V  0.64135509  0.64261406  0.83111926     1.35200
C1811       C  0.70437157  0.64378163  0.80881833     0.79000
C1812       C  0.58864645  0.64196188  0.75520814     0.79100
C1813       C  0.64586492  0.70260437  0.78077658     0.78900
C1814       C  0.64760519  0.58381451  0.78047683     0.78900
O1815       O  0.84429164  0.64375550  0.93529782    -0.70200
O1816       O  0.93112907  0.64176951  0.97385896    -0.70500
O1817       O  0.88892891  0.68669393  0.95451622    -0.70300
O1818       O  0.88694099  0.59867147  0.95597367    -0.70300
O1819       O  0.90043036  0.59854561  0.85345325    -0.70300
O1820       O  0.89512297  0.68709222  0.84903512    -0.70300
O1821       O  0.94093058  0.64595183  0.86990498    -0.70200
O1822       O  0.85487495  0.63982173  0.83192456    -0.70400
V1823       V  0.88789628  0.64268074  0.95293263     1.35200
V1824       V  0.89767129  0.64283306  0.85300306     1.35200
C1825       C  0.83484538  0.64157936  0.87686239     0.79000
C1826       C  0.95082249  0.64449374  0.92806976     0.79100
C1827       C  0.89204803  0.70190943  0.90161397     0.78900
C1828       C  0.89436139  0.58364398  0.90581414     0.78900
O1829       O  0.69615152  0.89316777  0.81233005    -0.70200
O1830       O  0.60955717  0.89681410  0.85288795    -0.70500
O1831       O  0.65012932  0.85117926  0.83035372    -0.70300
O1832       O  0.65554308  0.93917407  0.83596166    -0.70300
O1833       O  0.64190579  0.94266269  0.98396111    -0.70300
O1834       O  0.64263598  0.85385128  0.97535888    -0.70300
O1835       O  0.59924139  0.89745361  0.99893657    -0.70200
O1836       O  0.68524012  0.89954669  0.95935059    -0.70400
V1837       V  0.65268889  0.89519732  0.83091602     1.35200
V1838       V  0.64244335  0.89824407  0.98135307     1.35200
C1839       C  0.70541100  0.89636915  0.00379425     0.79000
C1840       C  0.58964397  0.89737981  0.80728336     0.79100
C1841       C  0.64587884  0.83746229  0.77698197     0.78900
C1842       C  0.64913158  0.95605188  0.78658026     0.78900
O1843       O  0.84476490  0.89643903  0.87608784    -0.70200
O1844       O  0.93130031  0.89547849  0.83398167    -0.70500
O1845       O  0.88704936  0.85178944  0.85490208    -0.70300
O1846       O  0.88849437  0.93968876  0.85421399    -0.70300
O1847       O  0.89933003  0.93962488  0.95788452    -0.70300
O1848       O  0.89907216  0.85078699  0.95799118    -0.70300
O1849       O  0.94207786  0.89502652  0.93773747    -0.70200
O1850       O  0.85627215  0.89468097  0.97947242    -0.70400
V1851       V  0.88815067  0.89582512  0.85680102     1.35200
V1852       V  0.89898725  0.89511815  0.95628293     1.35200
C1853       C  0.83586073  0.89548640  0.93509573     0.79000
C1854       C  0.95141406  0.89474228  0.87922575     0.79100
C1855       C  0.89286400  0.83618475  0.90626788     0.78900
C1856       C  0.89358484  0.95475012  0.90559580     0.78900
C1857       C  0.78149430  0.91417811  0.91678475     0.25100
C1858       C  0.80248421  0.89545149  0.95221875    -0.23000
C1859       C  0.79144157  0.87715492  0.00514516     0.20000
C1860       C  0.75991636  0.87767336  0.02250122     0.25100
C1861       C  0.73888733  0.89640342  0.98704104    -0.22900
C1862       C  0.74998326  0.91468825  0.93406346     0.20000
F1863       F  0.73047290  0.93373971  0.90000709    -0.12900
F1864       F  0.79164479  0.93266533  0.86651938    -0.15200
F1865       F  0.74981827  0.85916223  0.82273610    -0.15200
F1866       F  0.81100068  0.85798330  0.03877935    -0.12900
C1867       C  0.87536084  0.75334393  0.85564556     0.25100
C1868       C  0.89243859  0.73613431  0.90203120    -0.23000
C1869       C  0.90953995  0.75182742  0.95004438     0.20000
C1870       C  0.90968357  0.78436420  0.95157922     0.25100
C1871       C  0.89249382  0.80175704  0.90531225    -0.22900
C1872       C  0.87526680  0.78589829  0.85734738     0.20000
F1873       F  0.85785012  0.80183159  0.81271066    -0.12900
F1874       F  0.85802857  0.73859385  0.80988388    -0.15200
F1875       F  0.92718320  0.79880207  0.99750300    -0.15200
F1876       F  0.92669132  0.73560753  0.99470535    -0.12900
C1877       C  0.62803050  0.75379966  0.82543209     0.25100
C1878       C  0.64555167  0.73720951  0.77946655    -0.23000
C1879       C  0.66261599  0.75408217  0.73150327     0.20000
C1880       C  0.66215122  0.78671395  0.72969665     0.25100
C1881       C  0.64487308  0.80311288  0.77596745    -0.22900
C1882       C  0.62782951  0.78643006  0.82381377     0.20000
F1883       F  0.61058801  0.80180508  0.86858646    -0.12900
F1884       F  0.61072634  0.73850263  0.87149409    -0.15200
F1885       F  0.67954728  0.80232123  0.93425284    -0.15200
F1886       F  0.68039953  0.73907308  0.93713388    -0.12900
C1887       C  0.79009120  0.62369530  0.80848952     0.25100
C1888       C  0.80133160  0.64155181  0.86068582    -0.23000
C1889       C  0.78051168  0.66036381  0.89522037     0.20000
C1890       C  0.74902331  0.66138852  0.87773499     0.25100
C1891       C  0.73780126  0.64354164  0.82555151    -0.22900
C1892       C  0.75860193  0.62470698  0.79104819     0.20000
F1893       F  0.74829182  0.60661237  0.99155192    -0.12900
F1894       F  0.80945798  0.60463531  0.77533652    -0.15200
F1895       F  0.72967353  0.68058642  0.91056158    -0.15200
F1896       F  0.79081426  0.67851928  0.94460498    -0.12900
C1897       C  0.91030410  0.00750404  0.94550755     0.25100
C1898       C  0.89246701  0.98914840  0.90292339    -0.23000
C1899       C  0.87431344  0.00395499  0.85436131     0.20000
C1900       C  0.87505569  0.03622256  0.84647213     0.25100
C1901       C  0.89384072  0.05453291  0.88700996    -0.22900
C1902       C  0.91099814  0.04005062  0.93754625     0.20000
F1903       F  0.92960177  0.05718552  0.97699511    -0.12900
F1904       F  0.92813816  0.99393706  0.99272214    -0.15200
F1905       F  0.85727707  0.04961553  0.79888111    -0.15200
F1906       F  0.85580032  0.98716990  0.81397678    -0.12900
C1907       C  0.88037570  0.49785751  0.87739339     0.25100
C1908       C  0.89787333  0.48450220  0.92881583    -0.23000
C1909       C  0.91564641  0.50399654  0.96919900     0.20000
C1910       C  0.91494371  0.53623269  0.96016864     0.25100
C1911       C  0.89683429  0.54960123  0.91016527    -0.22900
C1912       C  0.87998682  0.53030331  0.86796646     0.20000
F1913       F  0.86194068  0.54294184  0.81999560    -0.12900
F1914       F  0.86249238  0.47971897  0.83847674    -0.15200
F1915       F  0.93191378  0.55452436  0.00059596    -0.15200
F1916       F  0.93370727  0.49186390  0.76778678    -0.12900
C1917       C  0.88057732  0.25860249  0.83877266     0.25100
C1918       C  0.89952411  0.23797870  0.80417574    -0.23000
C1919       C  0.91738932  0.24940061  0.75118061     0.20000
C1920       C  0.91627217  0.28092549  0.73302004     0.25100
C1921       C  0.89727446  0.30154459  0.76753106    -0.22900
C1922       C  0.87943082  0.29012241  0.82056863     0.20000
F1923       F  0.86012655  0.30929314  0.85360184    -0.12900
F1924       F  0.86235627  0.24806042  0.88882084    -0.15200
F1925       F  0.93436418  0.29141906  0.93273160    -0.15200
F1926       F  0.93648811  0.23015887  0.71780296    -0.12900
C1927       C  0.66800964  0.00459560  0.84025249     0.25100
C1928       C  0.64990474  0.99051282  0.79139661    -0.23000
C1929       C  0.63171821  0.00961929  0.74980128     0.20000
C1930       C  0.63094734  0.04201090  0.75845208     0.25100
C1931       C  0.64844506  0.05576538  0.80850801    -0.22900
C1932       C  0.66726863  0.03679524  0.84863520     0.20000
F1933       F  0.68510585  0.04951252  0.89625997    -0.12900
F1934       F  0.68651228  0.98720908  0.88030292    -0.15200
F1935       F  0.61182296  0.05964762  0.72031821    -0.15200
F1936       F  0.61360555  0.99687985  0.95272334    -0.12900
C1937       C  0.75567336  0.13047495  0.89720072     0.25100
C1938       C  0.73884424  0.14790684  0.85033859    -0.23000
C1939       C  0.75537013  0.16498935  0.80194000     0.20000
C1940       C  0.78794408  0.16454152  0.80042320     0.25100
C1941       C  0.80459810  0.14727143  0.84744938    -0.22900
C1942       C  0.78825202  0.13028138  0.89586615     0.20000
F1943       F  0.80386796  0.11284194  0.94103333    -0.12900
F1944       F  0.74064835  0.11302314  0.94349346    -0.15200
F1945       F  0.80326217  0.18166946  0.00403464    -0.15200
F1946       F  0.74006912  0.18257473  0.75655033    -0.12900
C1947       C  0.66603034  0.50294103  0.97207848     0.25100
C1948       C  0.64719437  0.48406549  0.01283645    -0.23000
C1949       C  0.62993180  0.49800487  0.81295166     0.20000
C1950       C  0.63070869  0.53048173  0.82052829     0.25100
C1951       C  0.64868589  0.54939246  0.77792039    -0.22900
C1952       C  0.66675112  0.53517743  0.97945700     0.20000
F1953       F  0.68519730  0.55253814  0.93881843    -0.12900
F1954       F  0.68390074  0.49013156  0.92479928    -0.15200
F1955       F  0.61273377  0.54350086  0.86730715    -0.15200
F1956       F  0.61110215  0.48044052  0.85229908    -0.12900
C1957       C  0.75348060  0.41073644  0.76542173     0.25100
C1958       C  0.73698933  0.39363545  0.96856449    -0.23000
C1959       C  0.75347130  0.37636116  0.92247217     0.20000
C1960       C  0.78603991  0.37582793  0.92368518     0.25100
C1961       C  0.80270853  0.39285306  0.97081063    -0.22900
C1962       C  0.78603120  0.41048652  0.76641766     0.20000
F1963       F  0.80114574  0.42787733  0.81147849    -0.12900
F1964       F  0.73800342  0.42814011  0.80970698    -0.15200
F1965       F  0.80116961  0.35812169  0.87943316    -0.15200
F1966       F  0.73800756  0.35912142  0.87767001    -0.12900
C1967       C  0.66247044  0.24855133  0.94833442     0.25100
C1968       C  0.64419917  0.23785813  0.89608213    -0.23000
C1969       C  0.62530802  0.25908805  0.86160350     0.20000
C1970       C  0.62459751  0.29046752  0.87918896     0.25100
C1971       C  0.64281919  0.30121819  0.93160413    -0.22900
C1972       C  0.66172085  0.27992408  0.96608954     0.20000
F1973       F  0.68024273  0.28963998  0.76568967    -0.12900
F1974       F  0.68194926  0.22883162  0.98073014    -0.15200
F1975       F  0.60550110  0.31019809  0.84580031    -0.15200
F1976       F  0.60694267  0.24930118  0.81183117    -0.12900
C1977       C  0.00477867  0.12425916  0.90372302     0.25100
C1978       C  0.99137631  0.14236508  0.85354281    -0.23000
C1979       C  0.01071856  0.15898352  0.80971229     0.20000
C1980       C  0.04319054  0.15829477  0.81751462     0.25100
C1981       C  0.05657234  0.14068306  0.86885767    -0.22900
C1982       C  0.03704318  0.12325483  0.91110711     0.20000
F1983       F  0.04921872  0.10524312  0.95992521    -0.12900
F1984       F  0.98651208  0.10751216  0.94580985    -0.15200
F1985       F  0.06134747  0.17607571  0.77719657    -0.15200
F1986       F  0.99811121  0.17709218  0.76160749    -0.12900
C1987       C  0.53220530  0.12980519  0.88597999     0.25100
C1988       C  0.55115247  0.14777168  0.84342837    -0.23000
C1989       C  0.53691044  0.16591074  0.79388703     0.20000
C1990       C  0.50472021  0.16516559  0.78533508     0.25100
C1991       C  0.48586201  0.14638620  0.82608528    -0.22900
C1992       C  0.49974220  0.12907891  0.87725068     0.20000
F1993       F  0.48213537  0.11021807  0.91647613    -0.12900
F1994       F  0.54514029  0.11187410  0.93397531    -0.15200
F1995       F  0.49191859  0.18293747  0.98685086    -0.15200
F1996       F  0.55416962  0.18443143  0.75315976    -0.12900
C1997       C  0.28178241  0.12345920  0.77353210     0.25100
C1998       C  0.30332086  0.14164460  0.98772801    -0.23000
C1999       C  0.29270232  0.15993028  0.93448587     0.20000
C2000       C  0.26115218  0.15993430  0.91727857     0.25100
C2001       C  0.23961950  0.14178302  0.95316201    -0.22900
C2002       C  0.25023308  0.12350236  0.75637274     0.20000
F2003       F  0.23018570  0.10495987  0.79075230    -0.12900
F2004       F  0.29136989  0.10503765  0.82420649    -0.15200
F2005       F  0.25152821  0.17839721  0.86669582    -0.15200
F2006       F  0.31270950  0.17861102  0.90029606    -0.12900
C2007       C  0.00878952  0.37893534  0.00879366     0.25100
C2008       C  0.98974702  0.39577392  0.96509397    -0.23000
C2009       C  0.00350576  0.41369560  0.91469129     0.20000
C2010       C  0.03573867  0.41414601  0.90679695     0.25100
C2011       C  0.05487582  0.39651052  0.94892280    -0.22900
C2012       C  0.04122747  0.37919725  0.00060820     0.20000
F2013       F  0.05909598  0.36138702  0.79108771    -0.12900
F2014       F  0.99592838  0.36105324  0.80719052    -0.15200
F2015       F  0.04827846  0.43195587  0.85785185    -0.15200
F2016       F  0.98563917  0.43085967  0.87290802    -0.12900
C2017       C  0.12933064  0.28498289  0.95799450     0.25100
C2018       C  0.14597515  0.30194941  0.90993818    -0.23000
C2019       C  0.16335036  0.28590740  0.86334358     0.20000
C2020       C  0.16422334  0.25333677  0.86479993     0.25100
C2021       C  0.14745072  0.23615077  0.91269232    -0.22900
C2022       C  0.12993824  0.25233855  0.95924490     0.20000
F2023       F  0.11286402  0.23662355  0.00506963    -0.12900
F2024       F  0.11194098  0.30006798  0.00294943    -0.15200
F2025       F  0.18199498  0.23866151  0.81988778    -0.15200
F2026       F  0.18029631  0.30182988  0.81759309    -0.12900
C2027       C  0.49873280  0.41023451  0.95299550     0.25100
C2028       C  0.48475593  0.39283676  0.75406958    -0.23000
C2029       C  0.50347975  0.37416569  0.79494945     0.20000
C2030       C  0.53566281  0.37346338  0.78630269     0.25100
C2031       C  0.54999090  0.39151513  0.98645940    -0.22900
C2032       C  0.53114120  0.40960228  0.94423477     0.20000
F2033       F  0.54409358  0.42758105  0.89609649    -0.12900
F2034       F  0.48124018  0.42893059  0.91356239    -0.15200
F2035       F  0.55275142  0.35500949  0.82707611    -0.15200
F2036       F  0.49054409  0.35629864  0.84335927    -0.12900
C2037       C  0.37659424  0.28419560  0.84144209     0.25100
C2038       C  0.39378983  0.30171387  0.79541532    -0.23000
C2039       C  0.41085481  0.28633373  0.74717327     0.20000
C2040       C  0.41070066  0.25382806  0.74472778     0.25100
C2041       C  0.39316930  0.23607846  0.79021673    -0.22900
C2042       C  0.37616314  0.25162007  0.83879178     0.20000
F2043       F  0.35861882  0.23538524  0.88301209    -0.12900
F2044       F  0.35936344  0.29867077  0.88754440    -0.15200
F2045       F  0.42815301  0.23978147  0.94839238    -0.15200
F2046       F  0.42813543  0.30285543  0.70290795    -0.12900
C2047       C  0.25917821  0.37761597  0.90668785     0.25100
C2048       C  0.23829220  0.39629011  0.87080303    -0.23000
C2049       C  0.24947991  0.41439201  0.81765802     0.20000
C2050       C  0.28101095  0.41372899  0.80057378     0.25100
C2051       C  0.30184968  0.39503085  0.83641504    -0.22900
C2052       C  0.29070819  0.37694070  0.88951752     0.20000
F2053       F  0.31018720  0.35779914  0.92342739    -0.12900
F2054       F  0.24890040  0.35926160  0.95703512    -0.15200
F2055       F  0.29134126  0.43201325  0.75015102    -0.15200
F2056       F  0.23001623  0.43337069  0.78326909    -0.12900
C2057       C  0.13021363  0.99701607  0.92983740     0.25100
C2058       C  0.14753322  0.98347786  0.87934267    -0.23000
C2059       C  0.16650229  0.00263889  0.83947006     0.20000
C2060       C  0.16751142  0.03476930  0.84847168     0.25100
C2061       C  0.14959275  0.04859987  0.89772072    -0.22900
C2062       C  0.13126362  0.02935899  0.93904958     0.20000
F2063       F  0.11330662  0.04193408  0.98641216    -0.12900
F2064       F  0.11114749  0.97919681  0.96817386    -0.15200
F2065       F  0.18613859  0.05235453  0.80867724    -0.15200
F2066       F  0.18432493  0.99020885  0.79165516    -0.12900
C2067       C  0.03173618  0.90946011  0.80655507     0.25100
C2068       C  0.05043209  0.89116191  0.84873947    -0.23000
C2069       C  0.03586573  0.87293266  0.89797909     0.20000
C2070       C  0.00366730  0.87375378  0.90631350     0.25100
C2071       C  0.98510163  0.89268462  0.86564922    -0.22900
C2072       C  0.99927533  0.91020534  0.81501403     0.20000
F2073       F  0.98194571  0.92921635  0.77593483    -0.12900
F2074       F  0.04489377  0.92758274  0.75890531    -0.15200
F2075       F  0.99054950  0.85581447  0.95438860    -0.15200
F2076       F  0.05275421  0.85421623  0.93859807    -0.12900
C2077       C  0.16086832  0.50859582  0.87560509     0.25100
C2078       C  0.14448563  0.48896211  0.91938640    -0.23000
C2079       C  0.12633998  0.50212864  0.96875465     0.20000
C2080       C  0.12505891  0.53440457  0.97536325     0.25100
C2081       C  0.14222066  0.55423530  0.93311444    -0.22900
C2082       C  0.15989892  0.54107321  0.88262427     0.20000
F2083       F  0.17733243  0.55946763  0.84209002    -0.12900
F2084       F  0.17888325  0.49627724  0.82803663    -0.15200
F2085       F  0.10692696  0.54627810  0.77328695    -0.15200
F2086       F  0.10960765  0.48364399  0.76048878    -0.12900
C2087       C  0.03071043  0.63005326  0.00216718     0.25100
C2088       C  0.04978851  0.64789653  0.95975595    -0.23000
C2089       C  0.03582940  0.66565413  0.90934354     0.20000
C2090       C  0.00364678  0.66490464  0.90024998     0.25100
C2091       C  0.98460455  0.64638104  0.94124627    -0.22900
C2092       C  0.99832882  0.62926689  0.99290692     0.20000
F2093       F  0.98062322  0.61069081  0.78251655    -0.12900
F2094       F  0.04348429  0.61228953  0.80063687    -0.15200
F2095       F  0.99106205  0.68251968  0.85127132    -0.15200
F2096       F  0.05337323  0.68385373  0.86853123    -0.12900
C2097       C  0.16225333  0.77963300  0.83089399     0.25100
C2098       C  0.14354404  0.80092415  0.79595971    -0.23000
C2099       C  0.12533289  0.79013930  0.74358201     0.20000
C2100       C  0.12578878  0.75867395  0.72659862     0.25100
C2101       C  0.14436731  0.73740862  0.76176639    -0.22900
C2102       C  0.16268622  0.74817307  0.81389110     0.20000
F2103       F  0.18174673  0.72837601  0.84721788    -0.12900
F2104       F  0.18077858  0.78940174  0.88041802    -0.15200
F2105       F  0.10734107  0.74882681  0.92699102    -0.15200
F2106       F  0.10637618  0.80988822  0.70988717    -0.12900
C2107       C  0.41786180  0.00273673  0.84060452     0.25100
C2108       C  0.39972538  0.98378768  0.79979423    -0.23000
C2109       C  0.38246244  0.99776683  0.74874205     0.20000
C2110       C  0.38238981  0.03032139  0.74058542     0.25100
C2111       C  0.39936329  0.04910278  0.78367352    -0.22900
C2112       C  0.41752268  0.03503492  0.83281392     0.20000
F2113       F  0.43477543  0.05271504  0.87393240    -0.12900
F2114       F  0.43582726  0.98998842  0.88864650    -0.15200
F2115       F  0.36438980  0.04354212  0.69323551    -0.15200
F2116       F  0.36439473  0.98014423  0.70916910    -0.12900
C2117       C  0.54253044  0.88040160  0.87193560     0.25100
C2118       C  0.55587835  0.89812072  0.82050074    -0.23000
C2119       C  0.53639693  0.91542986  0.77848441     0.20000
C2120       C  0.50415130  0.91423090  0.78617083     0.25100
C2121       C  0.49069754  0.89589051  0.83631766    -0.22900
C2122       C  0.51007440  0.87942981  0.88000339     0.20000
F2123       F  0.49754085  0.86116873  0.92816479    -0.12900
F2124       F  0.56071317  0.86274109  0.91204119    -0.15200
F2125       F  0.48597218  0.93104290  0.74435837    -0.15200
F2126       F  0.54861664  0.93352573  0.72963814    -0.12900
C2127       C  0.28659593  0.90932383  0.88576341     0.25100
C2128       C  0.30350534  0.89185861  0.84024135    -0.23000
C2129       C  0.28701649  0.87491075  0.79269888     0.20000
C2130       C  0.25443939  0.87551732  0.79075314     0.25100
C2131       C  0.23773023  0.89278908  0.83651230    -0.22900
C2132       C  0.25403156  0.90964915  0.88403340     0.20000
F2133       F  0.23836946  0.92691535  0.92826895    -0.12900
F2134       F  0.30151061  0.92651099  0.93144756    -0.15200
F2135       F  0.23917957  0.85837189  0.99548420    -0.15200
F2136       F  0.30233168  0.85724593  0.74865205    -0.12900
C2137       C  0.37375325  0.53526629  0.72580691     0.25100
C2138       C  0.39276630  0.55410418  0.01477651    -0.23000
C2139       C  0.41041678  0.54021915  0.81531859     0.20000
C2140       C  0.40984873  0.50776315  0.82501559     0.25100
C2141       C  0.39161089  0.48886013  0.78424056    -0.22900
C2142       C  0.37310133  0.50307921  0.73545816     0.20000
F2143       F  0.35428329  0.48580415  0.69661807    -0.12900
F2144       F  0.35560219  0.54807835  0.67815129    -0.15200
F2145       F  0.42817957  0.49479846  0.87211590    -0.15200
F2146       F  0.42939032  0.55785226  0.10300240    -0.12900
C2147       C  0.50318452  0.62384642  0.77715723     0.25100
C2148       C  0.48964109  0.64188785  0.97704841    -0.23000
C2149       C  0.50882436  0.65856695  0.93304622     0.20000
C2150       C  0.54129523  0.65810771  0.94074509     0.25100
C2151       C  0.55483472  0.64066090  0.74218031    -0.22900
C2152       C  0.53545311  0.62305923  0.78444292     0.20000
F2153       F  0.54776054  0.60510766  0.83320456    -0.12900
F2154       F  0.48504121  0.60699464  0.81930066    -0.15200
F2155       F  0.55929194  0.67591416  0.90016046    -0.15200
F2156       F  0.49605363  0.67651345  0.88486500    -0.12900
C2157       C  0.28638593  0.66351102  0.92527892     0.25100
C2158       C  0.30295080  0.64628221  0.97243464    -0.23000
C2159       C  0.28655061  0.62909210  0.77048900     0.20000
C2160       C  0.25394211  0.62894032  0.77106329     0.25100
C2161       C  0.23720243  0.64623196  0.97381420    -0.22900
C2162       C  0.25384176  0.66365325  0.92607899     0.20000
F2163       F  0.23868008  0.68127601  0.88053891    -0.12900
F2164       F  0.30176076  0.68088902  0.87936022    -0.15200
F2165       F  0.23881973  0.61133144  0.81694514    -0.15200
F2166       F  0.30213585  0.61175219  0.81586366    -0.12900
C2167       C  0.37961355  0.75816837  0.95984321     0.25100
C2168       C  0.39825841  0.73708599  0.92575612    -0.23000
C2169       C  0.41646777  0.74805465  0.87284744     0.20000
C2170       C  0.41595824  0.77957033  0.85423459     0.25100
C2171       C  0.39727100  0.80064903  0.88827649    -0.22900
C2172       C  0.37908424  0.78966211  0.94121931     0.20000
F2173       F  0.36006345  0.80926492  0.97385349    -0.12900
F2174       F  0.36115390  0.74812708  0.00993891    -0.15200
F2175       F  0.43438692  0.78961100  0.80409473    -0.15200
F2176       F  0.43541522  0.72839556  0.84017590    -0.12900
loop_ 
_geom_bond_atom_site_label_1 
_geom_bond_atom_site_label_2 
_geom_bond_distance 
_geom_bond_site_symmetry_2 
_ccdc_geom_bond_type 
O1           C11   1.266       .  A
O1          V553   1.906       .  S
O2         C1644   1.264       .  A
O2            V9   1.904       .  S
O3         C1645   1.263   1_554  A
O3            V9   1.892       .  S
O4           C14   1.262       .  A
O4          V553   1.895       .  S
O5           C14   1.265       .  A
O5           V10   1.903       .  S
O6           C13   1.264       .  A
O6           V10   1.904       .  S
O7           C12   1.263       .  A
O7           V10   1.891       .  S
O8           C11   1.261       .  A
O8           V10   1.890       .  S
V9         O1633   1.906       .  S
V9         O1636   1.895       .  S
V9         V1642   2.086   1_554  T
V10         V553   2.086       .  T
C11         C536   1.475       .  S
C12         O546   1.264       .  A
C12         C506   1.474       .  S
C13         O547   1.263       .  A
C13         C516   1.468       .  S
C14         C526   1.472       .  S
O15          C25   1.267       .  A
O15          V23   1.907       .  S
O16          C26   1.266       .  A
O16          V23   1.909       .  S
O17          C27   1.262       .  A
O17          V23   1.889       .  S
O18          C28   1.263       .  A
O18          V23   1.893       .  S
O19          C28   1.267       .  A
O19          V24   1.906       .  S
O20          C27   1.266       .  A
O20          V24   1.909       .  S
O21          C26   1.262       .  A
O21          V24   1.887       .  S
O22          C25   1.261       .  A
O22          V24   1.890       .  S
V23          V24   2.082       .  T
C25         C539   1.476       .  S
C26         C476   1.476       .  S
C27         C489   1.472       .  S
C28         C496   1.483       .  S
O29         C583   1.266       .  A
O29          V37   1.907       .  S
O30          C40   1.267       .  A
O30          V37   1.912       .  S
O31          C41   1.262       .  A
O31          V37   1.886       .  S
O32          C42   1.262       .  A
O32          V37   1.889       .  S
O33        C1674   1.267   1_554  A
O33          V38   1.908       .  S
O34        C1673   1.267   1_554  A
O34          V38   1.911       .  S
O35        C1672   1.262   1_554  A
O35          V38   1.888       .  S
O36          C39   1.262   1_554  A
O36          V38   1.893       .  S
V37         V582   2.084       .  T
V38        V1669   2.084   1_554  T
C39        O1661   1.266       .  A
C39         C469   1.476   1_556  S
C40         O579   1.262       .  A
C40         C449   1.479       .  S
C41         O578   1.267       .  A
C41         C456   1.479       .  S
C42         O577   1.267       .  A
C42         C529   1.482       .  S
O43          C53   1.267       .  A
O43          V51   1.908       .  S
O44          C54   1.266       .  A
O44          V51   1.908       .  S
O45          C55   1.263       .  A
O45          V51   1.889       .  S
O46          C56   1.261       .  A
O46          V51   1.891       .  S
O47          C56   1.267       .  A
O47          V52   1.908       .  S
O48          C55   1.267       .  A
O48          V52   1.911       .  S
O49          C54   1.263       .  A
O49          V52   1.891       .  S
O50          C53   1.262       .  A
O50          V52   1.894       .  S
V51          V52   2.081       .  T
C53         C466   1.479       .  S
C54         C426   1.477       .  S
C55         C436   1.484       .  S
C56         C499   1.473       .  S
O57          C67   1.266       .  A
O57          V65   1.905   1_554  S
O58         C612   1.265       .  A
O58         V609   1.907       .  S
O59          C69   1.261   1_556  A
O59          V65   1.890       .  S
O60          C70   1.261   1_556  A
O60          V65   1.881       .  S
O61          C70   1.267       .  A
O61          V66   1.912       .  S
O62          C69   1.265       .  A
O62          V66   1.905       .  S
O63          C68   1.262       .  A
O63          V66   1.889       .  S
O64          C67   1.261       .  A
O64          V66   1.891       .  S
V65        O1690   1.907       .  S
V65          V66   2.087   1_556  T
C67         C419   1.472       .  S
C68        O1690   1.265   1_554  A
C68         C396   1.475       .  S
C69         C406   1.469       .  S
C70         C509   1.478       .  S
O71          C81   1.266       .  A
O71          V79   1.907       .  S
O72          C82   1.264       .  A
O72          V79   1.904       .  S
O73          C83   1.261       .  A
O73          V79   1.892       .  S
O74          C84   1.263       .  A
O74          V79   1.895       .  S
O75          C84   1.264       .  A
O75          V80   1.904       .  S
O76          C83   1.266       .  A
O76          V80   1.907       .  S
O77          C82   1.263       .  A
O77          V80   1.890       .  S
O78          C81   1.261       .  A
O78          V80   1.889       .  S
V79          V80   2.088       .  T
C81         C416   1.475       .  S
C82         C379   1.474       .  S
C83         C386   1.472       .  S
C84         C446   1.472       .  S
O85        C1727   1.266       .  A
O85          V93   1.907       .  S
O86          C96   1.265       .  A
O86          V93   1.909       .  S
O87          C97   1.263       .  A
O87          V93   1.895       .  S
O88          C98   1.261       .  A
O88          V93   1.887       .  S
O89         C642   1.265       .  A
O89          V94   1.908       .  S
O90         C641   1.265       .  A
O90          V94   1.899       .  S
O91         C640   1.263       .  A
O91          V94   1.891       .  S
O92          C95   1.262       .  A
O92          V94   1.893       .  S
V93        V1726   2.086   1_554  T
V94         V637   2.086       .  T
C95         O629   1.266       .  A
C95         C366   1.478       .  S
C96        O1723   1.263       .  A
C96         C359   1.476       .  S
C97        O1722   1.265   1_554  A
C97         C409   1.480       .  S
C98        O1721   1.265   1_554  A
C98         C479   1.469       .  S
O99         C109   1.266       .  A
O99         V107   1.906       .  S
O100        C110   1.266       .  A
O100        V107   1.911       .  S
O101        C111   1.261       .  A
O101        V107   1.887       .  S
O102        C112   1.263       .  A
O102        V107   1.890       .  S
O103        C112   1.266       .  A
O103        V108   1.909       .  S
O104        C111   1.268       .  A
O104        V108   1.912       .  S
O105        C110   1.261       .  A
O105        V108   1.886       .  S
O106        C109   1.262       .  A
O106        V108   1.894       .  S
V107        V108   2.086       .  T
C109        C369   1.478       .  S
C110        C349   1.477       .  S
C111        C389   1.482       .  S
C112        C429   1.481       .  S
O113        C123   1.267       .  A
O113        V665   1.910       .  S
O114       C1756   1.266       .  A
O114        V121   1.910       .  S
O115       C1757   1.263   1_554  A
O115        V121   1.888       .  S
O116        C126   1.261       .  A
O116        V665   1.890       .  S
O117        C126   1.266       .  A
O117        V122   1.906       .  S
O118        C125   1.267       .  A
O118        V122   1.908       .  S
O119        C124   1.263       .  A
O119        V122   1.890       .  S
O120        C123   1.262       .  A
O120        V122   1.893       .  S
V121       O1745   1.910       .  S
V121       O1748   1.890       .  S
V121       V1754   2.081   1_554  T
V122        V665   2.081       .  T
C123        C339   1.480       .  S
C124        O658   1.266       .  A
C124        C316   1.478       .  S
C125        O659   1.263       .  A
C125        C399   1.482       .  S
C126        C326   1.471       .  S
O127        C137   1.266       .  A
O127        V135   1.906       .  S
O128        C138   1.266       .  A
O128        V135   1.912       .  S
O129        C139   1.261       .  A
O129        V135   1.884       .  S
O130        C140   1.262       .  A
O130        V135   1.893       .  S
O131        C140   1.266       .  A
O131        V136   1.905       .  S
O132        C139   1.268       .  A
O132        V136   1.915       .  S
O133        C138   1.262       .  A
O133        V136   1.889       .  S
O134        C137   1.262       .  A
O134        V136   1.895       .  S
V135        V136   2.086       .  T
C137        C336   1.477       .  S
C138        C299   1.477       .  S
C139        C356   1.482       .  S
C140        C306   1.482       .  S
O141        C695   1.266       .  A
O141        V149   1.904       .  S
O142        C152   1.265       .  A
O142        V149   1.906       .  S
O143        C153   1.262       .  A
O143        V149   1.888       .  S
O144        C154   1.263       .  A
O144        V149   1.892       .  S
O145       C1786   1.267   1_554  A
O145        V150   1.904       .  S
O146       C1785   1.265   1_554  A
O146        V150   1.907       .  S
O147       C1784   1.262   1_554  A
O147        V150   1.888       .  S
O148        C151   1.261   1_554  A
O148        V150   1.890       .  S
V149        V694   2.082       .  T
V150       V1781   2.082   1_554  T
C151       O1773   1.266       .  A
C151        C289   1.474   1_556  S
C152        O691   1.262       .  A
C152        C276   1.475       .  S
C153        O690   1.265       .  A
C153        C376   1.470       .  S
C154        O689   1.267       .  A
C154        C329   1.481       .  S
O155        C165   1.266       .  A
O155        V163   1.906       .  S
O156        C166   1.264       .  A
O156        V163   1.904       .  S
O157        C167   1.263       .  A
O157        V163   1.892       .  S
O158        C168   1.262       .  A
O158        V163   1.894       .  S
O159        C168   1.265       .  A
O159        V164   1.905       .  S
O160        C167   1.265       .  A
O160        V164   1.905       .  S
O161        C166   1.263       .  A
O161        V164   1.889       .  S
O162        C165   1.261       .  A
O162        V164   1.888       .  S
V163        V164   2.086       .  T
C165        C286   1.473       .  S
C166        C269   1.473       .  S
C167        C346   1.470       .  S
C168        C309   1.473       .  S
O169        C179   1.266       .  A
O169        V177   1.905   1_554  S
O170        C724   1.266       .  A
O170        V721   1.910       .  S
O171        C181   1.262   1_556  A
O171        V177   1.893       .  S
O172        C182   1.262   1_556  A
O172        V177   1.888       .  S
O173        C182   1.266       .  A
O173        V178   1.911       .  S
O174        C181   1.268       .  A
O174        V178   1.909       .  S
O175        C180   1.261       .  A
O175        V178   1.887       .  S
O176        C179   1.262       .  A
O176        V178   1.893       .  S
V177       O1802   1.910       .  S
V177        V178   2.084   1_556  T
C179        C259   1.475       .  S
C180       O1802   1.266   1_554  A
C180        C519   1.477   1_554  S
C181        C246   1.484       .  S
C182        C319   1.479       .  S
O183        C193   1.267       .  A
O183        V191   1.907       .  S
O184        C194   1.265       .  A
O184        V191   1.905       .  S
O185        C195   1.261       .  A
O185        V191   1.889       .  S
O186        C196   1.262       .  A
O186        V191   1.888       .  S
O187        C196   1.264       .  A
O187        V192   1.904       .  S
O188        C195   1.265       .  A
O188        V192   1.903       .  S
O189        C194   1.264       .  A
O189        V192   1.894       .  S
O190        C193   1.262       .  A
O190        V192   1.891       .  S
V191        V192   2.085       .  T
C193        C256   1.476       .  S
C194        C459   1.477       .  S
C195        C236   1.468       .  S
C196        C279   1.466       .  S
O197       C1839   1.266       .  A
O197        V205   1.907       .  S
O198        C208   1.265       .  A
O198        V205   1.907       .  S
O199        C209   1.261       .  A
O199        V205   1.891       .  S
O200        C210   1.264       .  A
O200        V205   1.894       .  S
O201        C754   1.266       .  A
O201        V206   1.907       .  S
O202        C753   1.267       .  A
O202        V206   1.910       .  S
O203        C752   1.262       .  A
O203        V206   1.889       .  S
O204        C207   1.262       .  A
O204        V206   1.892       .  S
V205       V1838   2.085   1_554  T
V206        V749   2.085       .  T
C207        O741   1.266       .  A
C207        C229   1.477       .  S
C208       O1835   1.262   1_554  A
C208        C486   1.475       .  S
C209       O1834   1.267   1_554  A
C209        C249   1.474       .  S
C210       O1833   1.266   1_554  A
C210        C296   1.483       .  S
O211        C221   1.265       .  A
O211        V219   1.904       .  S
O212        C222   1.266       .  A
O212        V219   1.910       .  S
O213        C223   1.262       .  A
O213        V219   1.890       .  S
O214        C224   1.261       .  A
O214        V219   1.882       .  S
O215        C224   1.266       .  A
O215        V220   1.910       .  S
O216        C223   1.266       .  A
O216        V220   1.902       .  S
O217        C222   1.262       .  A
O217        V220   1.888       .  S
O218        C221   1.262       .  A
O218        V220   1.894       .  S
V219        V220   2.086       .  T
C221        C226   1.475       .  S
C222        C439   1.476       .  S
C223        C239   1.477       .  S
C224        C266   1.477       .  S
C225        C226   1.404       .  A
C225        C230   1.398       .  A
C225        F232   1.358       .  S
C226        C227   1.407       .  A
C227        C228   1.399       .  A
C227        F234   1.358       .  S
C228        C229   1.405       .  A
C228        F777   1.358       .  S
C229        C230   1.408       .  A
C230        F231   1.358       .  S
F233       C1860   1.358       .  S
C235        C236   1.402       .  A
C235        C240   1.398       .  A
C235        F242   1.358       .  S
C236        C237   1.405       .  A
C237        C238   1.397       .  A
C237        F244   1.358       .  S
C238        C239   1.407       .  A
C238        F243   1.358       .  S
C239        C240   1.410       .  A
C240        F241   1.358       .  S
C245        C246   1.408       .  A
C245        C250   1.400       .  A
C245        F252   1.358       .  S
C246        C247   1.412   1_554  A
C247        C248   1.400       .  A
C247       F1886   1.358       .  S
C248        C249   1.402   1_556  A
C248       F1885   1.358       .  S
C249        C250   1.406       .  A
C250        F251   1.358       .  S
F253        C792   1.358       .  S
F254        C791   1.358       .  S
C255        C256   1.408       .  A
C255        C260   1.399       .  A
C255        F262   1.358       .  S
C256        C257   1.405       .  A
C257        C258   1.399       .  A
C257        F264   1.358       .  S
C258        C259   1.407       .  A
C258        F263   1.358       .  S
C259        C260   1.405       .  A
C260       F1893   1.358   1_554  S
F261        C804   1.358       .  S
C265        C266   1.408   1_545  A
C265        C270   1.403       .  A
C265        F272   1.358   1_545  S
C266        C267   1.408   1_565  A
C267        C268   1.391       .  A
C267        F274   1.359   1_545  S
C268        C269   1.403       .  A
C268        F273   1.359       .  S
C269        C270   1.407       .  A
C270        F271   1.357       .  S
C275        C276   1.408       .  A
C275        C280   1.402       .  A
C275        F282   1.357       .  S
C276        C277   1.407       .  A
C277        C278   1.393       .  A
C277        F828   1.359       .  S
C278        C279   1.402       .  A
C278        F283   1.358       .  S
C279        C280   1.404       .  A
C280        F281   1.358       .  S
F284       C1909   1.359   1_554  S
C285        C286   1.404       .  A
C285        C290   1.398       .  A
C285        F292   1.358       .  S
C286        C287   1.407       .  A
C287        C288   1.398   1_554  A
C287        F294   1.358   1_554  S
C288        C289   1.404   1_556  A
C288       F1925   1.358       .  S
C289        C290   1.408       .  A
C290        F291   1.358       .  S
F293        C832   1.358       .  S
C295        C296   1.408   1_545  A
C295        C300   1.395       .  A
C295        F302   1.358   1_545  S
C296        C297   1.410   1_564  A
C297        C298   1.404   1_556  A
C297       F1936   1.358   1_545  S
C298        C299   1.406       .  A
C298        F303   1.357   1_554  S
C299        C300   1.405       .  A
C300        F301   1.359       .  S
F304        C841   1.358   1_565  S
C305        C306   1.408       .  A
C305        C310   1.399       .  A
C305        F312   1.358       .  S
C306        C307   1.411       .  A
C307        C308   1.399       .  A
C307        F314   1.358       .  S
C308        C309   1.402       .  A
C308       F1945   1.358       .  S
C309        C310   1.405       .  A
C310        F311   1.358       .  S
F313        C852   1.358       .  S
C315        C316   1.405       .  A
C315        C320   1.394       .  A
C315        F322   1.359       .  S
C316        C861   1.407       .  A
C317        C318   1.405       .  A
C317       C1948   1.407       .  A
C317        F324   1.357       .  S
C318        C319   1.408       .  A
C318        F323   1.358       .  S
C319       C1952   1.407   1_554  A
C320        C863   1.407       .  A
C320        F321   1.359       .  S
C325        C330   1.398       .  A
C325       C1958   1.405   1_554  A
C325        F332   1.358       .  S
C326        C327   1.402       .  A
C326        C869   1.405       .  A
C327        C328   1.399       .  A
C327        F334   1.358       .  S
C328        C329   1.411       .  A
C328        F333   1.358       .  S
C329        C874   1.408       .  A
C330       C1961   1.408   1_554  A
C330        F331   1.358       .  S
C335        C336   1.407       .  A
C335        C340   1.400       .  A
C335        F342   1.357       .  S
C336        C337   1.404       .  A
C337        C338   1.399       .  A
C337        F344   1.358       .  S
C338        C339   1.409       .  A
C338        F343   1.358       .  S
C339        C340   1.406       .  A
C340        F885   1.358       .  S
F341       C1972   1.358   1_554  S
C345        C346   1.402   1_455  A
C345        C350   1.394       .  A
C345        F352   1.358   1_455  S
C346        C347   1.405   1_655  A
C347        C348   1.403       .  A
C347        F354   1.358   1_455  S
C348        C349   1.408       .  A
C348        F353   1.357       .  S
C349        C350   1.407       .  A
C350        F351   1.359       .  S
C355        C356   1.409       .  A
C355        C360   1.405       .  A
C355        F362   1.358       .  S
C356        C357   1.409       .  A
C357        C358   1.393       .  A
C357        F364   1.359       .  S
C358        C359   1.403       .  A
C358       F1995   1.359   1_554  S
C359        C360   1.407       .  A
C360        F361   1.357       .  S
F363        C902   1.359       .  S
C365        C370   1.399       .  A
C365       C1998   1.405   1_554  A
C365        F372   1.358       .  S
C366        C367   1.409       .  A
C366        C909   1.405       .  A
C367        C368   1.399       .  A
C367        F374   1.358       .  S
C368        C369   1.405       .  A
C368        F373   1.358       .  S
C369        C914   1.408       .  A
C370       C2001   1.408   1_554  A
C370        F371   1.357       .  S
C375        C376   1.405   1_455  A
C375        C380   1.402       .  A
C375        F926   1.358   1_455  S
C376        C377   1.404   1_655  A
C377        C378   1.393       .  A
C377        F384   1.359   1_455  S
C378        C379   1.405       .  A
C378        F383   1.359       .  S
C379        C380   1.408       .  A
C380        F925   1.357       .  S
F381       C2012   1.357       .  S
F382       C2007   1.358   1_655  S
C385        C386   1.406       .  A
C385        C390   1.401       .  A
C385        F392   1.358       .  S
C386        C387   1.401       .  A
C387        C388   1.398       .  A
C387        F394   1.358       .  S
C388        C389   1.411       .  A
C388        F393   1.358       .  S
C389        C390   1.407       .  A
C390        F391   1.358       .  S
C395        C400   1.403       .  A
C395        C940   1.406       .  A
C395        F402   1.357       .  S
C396        C397   1.404       .  A
C396       C2027   1.406   1_554  A
C397        C398   1.393       .  A
C397        F404   1.359       .  S
C398       C2031   1.409   1_554  A
C398        F403   1.358       .  S
C399        C400   1.410       .  A
C399        C942   1.409       .  A
C400        F401   1.358       .  S
C405        C406   1.402       .  A
C405        C410   1.399       .  A
C405        F412   1.358       .  S
C406        C407   1.404   1_554  A
C407        C408   1.396       .  A
C407        F414   1.358       .  S
C408        C409   1.408   1_556  A
C408       F2045   1.358       .  S
C409        C410   1.411       .  A
C410        F411   1.358       .  S
F413        C952   1.358       .  S
C415        C416   1.404       .  A
C415        C420   1.399       .  A
C415        F422   1.358       .  S
C416        C417   1.408       .  A
C417        C418   1.398       .  A
C417        F424   1.358       .  S
C418        C419   1.403       .  A
C418        F423   1.358       .  S
C419        C420   1.407       .  A
C420        F421   1.358       .  S
C425        C426   1.407       .  A
C425        C430   1.404   1_565  A
C425        F432   1.357       .  S
C426        C427   1.405   1_565  A
C427        C428   1.394       .  A
C427        F434   1.359   1_545  S
C428        C429   1.407       .  A
C428        F433   1.358       .  S
C429        C430   1.409       .  A
C430        F431   1.358       .  S
C435        C436   1.410       .  A
C435        C440   1.405   1_455  A
C435        F442   1.358       .  S
C436        C437   1.409       .  A
C437        C438   1.393       .  A
C437        F444   1.358       .  S
C438        C439   1.404   1_455  A
C438        F443   1.359   1_455  S
C439        C440   1.406       .  A
C440        F441   1.357       .  S
C445        C446   1.405       .  A
C445        C450   1.404       .  A
C445        F452   1.358       .  S
C446        C447   1.402       .  A
C447        C448   1.395       .  A
C447        F998   1.358       .  S
C448        C449   1.408       .  A
C448        F997   1.358       .  S
C449        C450   1.408       .  A
C450        F451   1.357       .  S
F453       C2080   1.358   1_554  S
F454       C2079   1.358   1_554  S
C455        C456   1.407       .  A
C455        C460   1.403   1_455  A
C455       F1006   1.358       .  S
C456        C457   1.408       .  A
C457        C458   1.394       .  A
C457        F464   1.359       .  S
C458        C459   1.405   1_455  A
C458        F463   1.358   1_455  S
C459        C460   1.408       .  A
C460       F1005   1.357       .  S
F461       C2092   1.357   1_554  S
F462       C2087   1.358       .  S
C465        C466   1.406       .  A
C465        C470   1.399       .  A
C465        F472   1.358       .  S
C466        C467   1.409   1_554  A
C467        C468   1.399       .  A
C467        F474   1.357       .  S
C468        C469   1.404   1_556  A
C468       F2105   1.358       .  S
C469        C470   1.407       .  A
C470        F471   1.358       .  S
F473       C1012   1.358       .  S
C475        C476   1.407   1_545  A
C475        C480   1.392       .  A
C475        F482   1.359   1_545  S
C476        C477   1.408   1_554  A
C477        C478   1.404   1_565  A
C477        F484   1.357       .  S
C478        C479   1.405   1_556  A
C478        F483   1.358       .  S
C479        C480   1.402       .  A
C480        F481   1.359       .  S
C485        C486   1.408       .  A
C485        C490   1.403       .  A
C485        F492   1.357       .  S
C486        C487   1.405       .  A
C487        C488   1.394       .  A
C487        F494   1.359   1_554  S
C488        C489   1.404       .  A
C488        F493   1.359   1_554  S
C489        C490   1.405       .  A
C490        F491   1.358       .  S
C495        C496   1.408       .  A
C495        C500   1.398       .  A
C495        F502   1.358       .  S
C496        C497   1.412       .  A
C497        C498   1.399       .  A
C497        F504   1.358   1_554  S
C498        C499   1.402       .  A
C498       F2135   1.358   1_554  S
C499        C500   1.405       .  A
C500        F501   1.358       .  S
F503       C1042   1.358       .  S
C505        C510   1.392       .  A
C505       C2138   1.403   1_556  A
C505        F512   1.359       .  S
C506       C1049   1.403       .  A
C506       C1051   1.407       .  A
C507        C508   1.403       .  A
C507       C2138   1.407       .  A
C507       F2146   1.357       .  S
C508        C509   1.408       .  A
C508        F513   1.358       .  S
C509        C510   1.408   1_554  A
C510        F511   1.359       .  S
F514       C1051   1.357       .  S
C515        C520   1.394       .  A
C515       C2148   1.402   1_554  A
C515        F522   1.358       .  S
C516        C517   1.404       .  A
C516       C1059   1.402       .  A
C517        C518   1.403       .  A
C517        F524   1.358       .  S
C518       C1063   1.408       .  A
C518        F523   1.357       .  S
C519        C520   1.408   1_556  A
C519       C2150   1.408       .  A
C520        F521   1.358       .  S
C525        C526   1.401       .  A
C525        C530   1.397       .  A
C525        F532   1.358       .  S
C526       C1071   1.406       .  A
C527        C528   1.400       .  A
C527       C2158   1.405   1_554  A
C527        F534   1.358       .  S
C528       C2161   1.408   1_554  A
C528        F533   1.358       .  S
C529        C530   1.411       .  A
C529       C1072   1.408       .  A
C530        F531   1.358       .  S
C535        C536   1.404       .  A
C535        C540   1.398       .  A
C535        F542   1.358       .  S
C536        C537   1.408       .  A
C537        C538   1.399       .  A
C537        F544   1.358       .  S
C538        C539   1.405       .  A
C538        F543   1.358       .  S
C539        C540   1.408       .  A
C540        F541   1.358       .  S
O545        C555   1.266       .  A
O545       V1097   1.906       .  S
O546        V553   1.904       .  S
O547        V553   1.892       .  S
O548        C558   1.262       .  A
O548       V1097   1.895       .  S
O549        C558   1.265       .  A
O549        V554   1.903       .  S
O550        C557   1.264       .  A
O550        V554   1.904       .  S
O551        C556   1.263       .  A
O551        V554   1.891       .  S
O552        C555   1.261       .  A
O552        V554   1.890       .  S
V554       V1097   2.086       .  T
C555       C1080   1.475       .  S
C556       O1090   1.264       .  A
C556       C1050   1.474       .  S
C557       O1091   1.263       .  A
C557       C1060   1.468       .  S
C558       C1070   1.472       .  S
O559        C569   1.267       .  A
O559        V567   1.907       .  S
O560        C570   1.266       .  A
O560        V567   1.909       .  S
O561        C571   1.262       .  A
O561        V567   1.889       .  S
O562        C572   1.263       .  A
O562        V567   1.893       .  S
O563        C572   1.267       .  A
O563        V568   1.906       .  S
O564        C571   1.266       .  A
O564        V568   1.909       .  S
O565        C570   1.262       .  A
O565        V568   1.887       .  S
O566        C569   1.261       .  A
O566        V568   1.890       .  S
V567        V568   2.082       .  T
C569       C1083   1.476       .  S
C570       C1020   1.476       .  S
C571       C1033   1.472       .  S
C572       C1040   1.483       .  S
O573       C1127   1.266       .  A
O573        V581   1.907       .  S
O574        C584   1.267       .  A
O574        V581   1.912       .  S
O575        C585   1.262       .  A
O575        V581   1.886       .  S
O576        C586   1.262       .  A
O576        V581   1.889       .  S
O577        V582   1.908       .  S
O578        V582   1.911       .  S
O579        V582   1.888       .  S
O580        C583   1.262       .  A
O580        V582   1.893       .  S
V581       V1126   2.084       .  T
C583       C1013   1.476       .  S
C584       O1123   1.262       .  A
C584        C993   1.479       .  S
C585       O1122   1.267       .  A
C585       C1000   1.479       .  S
C586       O1121   1.267       .  A
C586       C1073   1.482       .  S
O587        C597   1.267       .  A
O587        V595   1.908       .  S
O588        C598   1.266       .  A
O588        V595   1.908       .  S
O589        C599   1.263       .  A
O589        V595   1.889       .  S
O590        C600   1.261       .  A
O590        V595   1.891       .  S
O591        C600   1.267       .  A
O591        V596   1.908       .  S
O592        C599   1.267       .  A
O592        V596   1.911       .  S
O593        C598   1.263       .  A
O593        V596   1.891       .  S
O594        C597   1.262       .  A
O594        V596   1.894       .  S
V595        V596   2.081       .  T
C597       C1010   1.479       .  S
C598        C970   1.477       .  S
C599        C980   1.484       .  S
C600       C1043   1.473       .  S
O601        C611   1.266       .  A
O601        V609   1.905       .  S
O602       C1156   1.265       .  A
O602       V1153   1.907       .  S
O603        C613   1.261       .  A
O603        V609   1.890       .  S
O604        C614   1.261       .  A
O604        V609   1.881       .  S
O605        C614   1.267       .  A
O605        V610   1.912       .  S
O606        C613   1.265       .  A
O606        V610   1.905       .  S
O607        C612   1.262       .  A
O607        V610   1.889       .  S
O608        C611   1.261       .  A
O608        V610   1.891       .  S
V609        V610   2.087       .  T
C611        C963   1.472       .  S
C612        C940   1.475       .  S
C613        C950   1.469       .  S
C614       C1053   1.478       .  S
O615        C625   1.266       .  A
O615        V623   1.907       .  S
O616        C626   1.264       .  A
O616        V623   1.904       .  S
O617        C627   1.261       .  A
O617        V623   1.892       .  S
O618        C628   1.263       .  A
O618        V623   1.895       .  S
O619        C628   1.264       .  A
O619        V624   1.904       .  S
O620        C627   1.266       .  A
O620        V624   1.907       .  S
O621        C626   1.263       .  A
O621        V624   1.890       .  S
O622        C625   1.261       .  A
O622        V624   1.889       .  S
V623        V624   2.088       .  T
C625        C960   1.475       .  S
C626        C923   1.474       .  S
C627        C930   1.472       .  S
C628        C990   1.472       .  S
O629        V637   1.907       .  S
O630        C640   1.265       .  A
O630        V637   1.909       .  S
O631        C641   1.263       .  A
O631        V637   1.895       .  S
O632        C642   1.261       .  A
O632        V637   1.887       .  S
O633       C1186   1.265       .  A
O633        V638   1.908       .  S
O634       C1185   1.265       .  A
O634        V638   1.899       .  S
O635       C1184   1.263       .  A
O635        V638   1.891       .  S
O636        C639   1.262       .  A
O636        V638   1.893       .  S
V638       V1181   2.086       .  T
C639       O1173   1.266       .  A
C639        C910   1.478       .  S
C640        C903   1.476       .  S
C641        C953   1.480       .  S
C642       C1023   1.469       .  S
O643        C653   1.266       .  A
O643        V651   1.906       .  S
O644        C654   1.266       .  A
O644        V651   1.911       .  S
O645        C655   1.261       .  A
O645        V651   1.887       .  S
O646        C656   1.263       .  A
O646        V651   1.890       .  S
O647        C656   1.266       .  A
O647        V652   1.909       .  S
O648        C655   1.268       .  A
O648        V652   1.912       .  S
O649        C654   1.261       .  A
O649        V652   1.886       .  S
O650        C653   1.262       .  A
O650        V652   1.894       .  S
V651        V652   2.086       .  T
C653        C913   1.478       .  S
C654        C893   1.477       .  S
C655        C933   1.482       .  S
C656        C973   1.481       .  S
O657        C667   1.267       .  A
O657       V1209   1.910       .  S
O658        V665   1.910       .  S
O659        V665   1.888       .  S
O660        C670   1.261       .  A
O660       V1209   1.890       .  S
O661        C670   1.266       .  A
O661        V666   1.906       .  S
O662        C669   1.267       .  A
O662        V666   1.908       .  S
O663        C668   1.263       .  A
O663        V666   1.890       .  S
O664        C667   1.262       .  A
O664        V666   1.893       .  S
V666       V1209   2.081       .  T
C667        C883   1.480       .  S
C668       O1202   1.266       .  A
C668        C860   1.478       .  S
C669       O1203   1.263       .  A
C669        C943   1.482       .  S
C670        C870   1.471       .  S
O671        C681   1.266       .  A
O671        V679   1.906       .  S
O672        C682   1.266       .  A
O672        V679   1.912       .  S
O673        C683   1.261       .  A
O673        V679   1.884       .  S
O674        C684   1.262       .  A
O674        V679   1.893       .  S
O675        C684   1.266       .  A
O675        V680   1.905       .  S
O676        C683   1.268       .  A
O676        V680   1.915       .  S
O677        C682   1.262       .  A
O677        V680   1.889       .  S
O678        C681   1.262       .  A
O678        V680   1.895       .  S
V679        V680   2.086       .  T
C681        C880   1.477       .  S
C682        C843   1.477       .  S
C683        C900   1.482       .  S
C684        C850   1.482       .  S
O685       C1239   1.266       .  A
O685        V693   1.904       .  S
O686        C696   1.265       .  A
O686        V693   1.906       .  S
O687        C697   1.262       .  A
O687        V693   1.888       .  S
O688        C698   1.263       .  A
O688        V693   1.892       .  S
O689        V694   1.904       .  S
O690        V694   1.907       .  S
O691        V694   1.888       .  S
O692        C695   1.261       .  A
O692        V694   1.890       .  S
V693       V1238   2.082       .  T
C695        C833   1.474       .  S
C696       O1235   1.262       .  A
C696        C820   1.475       .  S
C697       O1234   1.265       .  A
C697        C920   1.470       .  S
C698       O1233   1.267       .  A
C698        C873   1.481       .  S
O699        C709   1.266       .  A
O699        V707   1.906       .  S
O700        C710   1.264       .  A
O700        V707   1.904       .  S
O701        C711   1.263       .  A
O701        V707   1.892       .  S
O702        C712   1.262       .  A
O702        V707   1.894       .  S
O703        C712   1.265       .  A
O703        V708   1.905       .  S
O704        C711   1.265       .  A
O704        V708   1.905       .  S
O705        C710   1.263       .  A
O705        V708   1.889       .  S
O706        C709   1.261       .  A
O706        V708   1.888       .  S
V707        V708   2.086       .  T
C709        C830   1.473       .  S
C710        C813   1.473       .  S
C711        C890   1.470       .  S
C712        C853   1.473       .  S
O713        C723   1.266       .  A
O713        V721   1.905       .  S
O714       C1268   1.266       .  A
O714       V1265   1.910       .  S
O715        C725   1.262       .  A
O715        V721   1.893       .  S
O716        C726   1.262       .  A
O716        V721   1.888       .  S
O717        C726   1.267       .  A
O717        V722   1.911       .  S
O718        C725   1.268       .  A
O718        V722   1.909       .  S
O719        C724   1.261       .  A
O719        V722   1.887       .  S
O720        C723   1.262       .  A
O720        V722   1.893       .  S
V721        V722   2.084       .  T
C723        C803   1.475       .  S
C724       C1063   1.477       .  S
C725        C790   1.484       .  S
C726        C863   1.479       .  S
O727        C737   1.267       .  A
O727        V735   1.907       .  S
O728        C738   1.265       .  A
O728        V735   1.905       .  S
O729        C739   1.261       .  A
O729        V735   1.889       .  S
O730        C740   1.262       .  A
O730        V735   1.888       .  S
O731        C740   1.264       .  A
O731        V736   1.904       .  S
O732        C739   1.265       .  A
O732        V736   1.903       .  S
O733        C738   1.264       .  A
O733        V736   1.894       .  S
O734        C737   1.262       .  A
O734        V736   1.891       .  S
V735        V736   2.085       .  T
C737        C800   1.476       .  S
C738       C1003   1.477       .  S
C739        C780   1.468       .  S
C740        C823   1.466       .  S
O741        V749   1.907       .  S
O742        C752   1.265       .  A
O742        V749   1.907       .  S
O743        C753   1.261       .  A
O743        V749   1.891       .  S
O744        C754   1.264       .  A
O744        V749   1.894       .  S
O745       C1298   1.266       .  A
O745        V750   1.907       .  S
O746       C1297   1.267       .  A
O746        V750   1.910       .  S
O747       C1296   1.262       .  A
O747        V750   1.889       .  S
O748        C751   1.262       .  A
O748        V750   1.892       .  S
V750       V1293   2.085       .  T
C751       O1285   1.266       .  A
C751        C773   1.477       .  S
C752       C1030   1.475       .  S
C753        C793   1.474       .  S
C754        C840   1.483       .  S
O755        C765   1.265       .  A
O755        V763   1.904       .  S
O756        C766   1.266       .  A
O756        V763   1.910       .  S
O757        C767   1.262       .  A
O757        V763   1.890       .  S
O758        C768   1.261       .  A
O758        V763   1.882       .  S
O759        C768   1.266       .  A
O759        V764   1.910       .  S
O760        C767   1.266       .  A
O760        V764   1.902       .  S
O761        C766   1.262       .  A
O761        V764   1.888       .  S
O762        C765   1.262       .  A
O762        V764   1.894       .  S
V763        V764   2.086       .  T
C765        C770   1.475       .  S
C766        C983   1.476       .  S
C767        C783   1.477       .  S
C768        C810   1.477       .  S
C769        C770   1.404       .  A
C769        C774   1.398       .  A
C769        F776   1.358       .  S
C770        C771   1.407       .  A
C771        C772   1.399       .  A
C771        F778   1.358       .  S
C772        C773   1.405       .  A
C772       F1321   1.358       .  S
C773        C774   1.408       .  A
C774        F775   1.358       .  S
C779        C780   1.402       .  A
C779        C784   1.398       .  A
C779        F786   1.358       .  S
C780        C781   1.405       .  A
C781        C782   1.397       .  A
C781        F788   1.358       .  S
C782        C783   1.407       .  A
C782        F787   1.358       .  S
C783        C784   1.410       .  A
C784        F785   1.358       .  S
C789        C790   1.408       .  A
C789        C794   1.400       .  A
C789        F796   1.358       .  S
C790        C791   1.412       .  A
C791        C792   1.400       .  A
C792        C793   1.402       .  A
C793        C794   1.406       .  A
C794        F795   1.358       .  S
F797       C1336   1.358       .  S
F798       C1335   1.358       .  S
C799        C800   1.408       .  A
C799        C804   1.399       .  A
C799        F806   1.358       .  S
C800        C801   1.405       .  A
C801        C802   1.399       .  A
C801        F808   1.358       .  S
C802        C803   1.407       .  A
C802        F807   1.358       .  S
C803        C804   1.405       .  A
F805       C1348   1.358       .  S
C809        C810   1.408   1_545  A
C809        C814   1.403       .  A
C809        F816   1.358   1_545  S
C810        C811   1.408   1_565  A
C811        C812   1.391       .  A
C811        F818   1.359   1_545  S
C812        C813   1.403       .  A
C812        F817   1.359       .  S
C813        C814   1.407       .  A
C814        F815   1.357       .  S
C819        C820   1.408       .  A
C819        C824   1.402       .  A
C819        F826   1.357       .  S
C820        C821   1.407       .  A
C821        C822   1.393       .  A
C821       F1372   1.359       .  S
C822        C823   1.402       .  A
C822        F827   1.358       .  S
C823        C824   1.404       .  A
C824        F825   1.358       .  S
C829        C830   1.404       .  A
C829        C834   1.398       .  A
C829        F836   1.358       .  S
C830        C831   1.407       .  A
C831        C832   1.398       .  A
C831        F838   1.358       .  S
C832        C833   1.404       .  A
C833        C834   1.408       .  A
C834        F835   1.358       .  S
F837       C1376   1.358       .  S
C839        C840   1.408   1_545  A
C839        C844   1.395       .  A
C839        F846   1.358   1_545  S
C840        C841   1.410   1_565  A
C841        C842   1.404       .  A
C842        C843   1.406       .  A
C842        F847   1.357       .  S
C843        C844   1.405       .  A
C844        F845   1.359       .  S
F848       C1385   1.358   1_565  S
C849        C850   1.408       .  A
C849        C854   1.399       .  A
C849        F856   1.358       .  S
C850        C851   1.411       .  A
C851        C852   1.399       .  A
C851        F858   1.358       .  S
C852        C853   1.402       .  A
C853        C854   1.405       .  A
C854        F855   1.358       .  S
F857       C1396   1.358       .  S
C859        C860   1.405       .  A
C859        C864   1.394       .  A
C859        F866   1.359       .  S
C860       C1405   1.407       .  A
C861        C862   1.405       .  A
C861        F868   1.357       .  S
C862        C863   1.408       .  A
C862        F867   1.358       .  S
C864       C1407   1.407       .  A
C864        F865   1.359       .  S
C869        C874   1.398       .  A
C869        F876   1.358       .  S
C870       C1413   1.405       .  A
C870        C871   1.402       .  A
C871        C872   1.399       .  A
C871        F878   1.358       .  S
C872        C873   1.411       .  A
C872        F877   1.358       .  S
C873       C1418   1.408       .  A
C874        F875   1.358       .  S
C879        C880   1.407       .  A
C879        C884   1.400       .  A
C879        F886   1.357       .  S
C880        C881   1.404       .  A
C881        C882   1.399       .  A
C881        F888   1.358       .  S
C882        C883   1.409       .  A
C882        F887   1.358       .  S
C883        C884   1.406       .  A
C884       F1429   1.358       .  S
C889        C890   1.402   1_455  A
C889        C894   1.394       .  A
C889        F896   1.358   1_455  S
C890        C891   1.405   1_655  A
C891        C892   1.403       .  A
C891        F898   1.358   1_455  S
C892        C893   1.408       .  A
C892        F897   1.357       .  S
C893        C894   1.407       .  A
C894        F895   1.359       .  S
C899        C900   1.409       .  A
C899        C904   1.405       .  A
C899        F906   1.358       .  S
C900        C901   1.409       .  A
C901        C902   1.393       .  A
C901        F908   1.359       .  S
C902        C903   1.403       .  A
C903        C904   1.407       .  A
C904        F905   1.357       .  S
F907       C1446   1.359       .  S
C909        C914   1.399       .  A
C909        F916   1.358       .  S
C910       C1453   1.405       .  A
C910        C911   1.409       .  A
C911        C912   1.399       .  A
C911        F918   1.358       .  S
C912        C913   1.405       .  A
C912        F917   1.358       .  S
C913       C1458   1.408       .  A
C914        F915   1.357       .  S
C919        C920   1.405   1_455  A
C919        C924   1.402       .  A
C919       F1470   1.358   1_455  S
C920        C921   1.404   1_655  A
C921        C922   1.393       .  A
C921        F928   1.359   1_455  S
C922        C923   1.405       .  A
C922        F927   1.359       .  S
C923        C924   1.408       .  A
C924       F1469   1.357       .  S
C929        C930   1.406       .  A
C929        C934   1.401       .  A
C929        F936   1.358       .  S
C930        C931   1.401       .  A
C931        C932   1.398       .  A
C931        F938   1.358       .  S
C932        C933   1.411       .  A
C932        F937   1.358       .  S
C933        C934   1.407       .  A
C934        F935   1.358       .  S
C939       C1484   1.406       .  A
C939        C944   1.403       .  A
C939        F946   1.357       .  S
C940        C941   1.404       .  A
C941        C942   1.393       .  A
C941        F948   1.359       .  S
C942        F947   1.358       .  S
C943       C1486   1.409       .  A
C943        C944   1.410       .  A
C944        F945   1.358       .  S
C949        C950   1.402       .  A
C949        C954   1.399       .  A
C949        F956   1.358       .  S
C950        C951   1.404       .  A
C951        C952   1.396       .  A
C951        F958   1.358       .  S
C952        C953   1.408       .  A
C953        C954   1.411       .  A
C954        F955   1.358       .  S
F957       C1496   1.358       .  S
C959        C960   1.404       .  A
C959        C964   1.399       .  A
C959        F966   1.358       .  S
C960        C961   1.408       .  A
C961        C962   1.398       .  A
C961        F968   1.358       .  S
C962        C963   1.403       .  A
C962        F967   1.358       .  S
C963        C964   1.407       .  A
C964        F965   1.358       .  S
C969        C970   1.407       .  A
C969        C974   1.404   1_565  A
C969        F976   1.357       .  S
C970        C971   1.405   1_565  A
C971        C972   1.394       .  A
C971        F978   1.359   1_545  S
C972        C973   1.407       .  A
C972        F977   1.358       .  S
C973        C974   1.409       .  A
C974        F975   1.358       .  S
C979        C980   1.410       .  A
C979        C984   1.405   1_455  A
C979        F986   1.358       .  S
C980        C981   1.409       .  A
C981        C982   1.393       .  A
C981        F988   1.358       .  S
C982        C983   1.404   1_455  A
C982        F987   1.359   1_455  S
C983        C984   1.406       .  A
C984        F985   1.357       .  S
C989        C990   1.405       .  A
C989        C994   1.404       .  A
C989        F996   1.358       .  S
C990        C991   1.402       .  A
C991        C992   1.395       .  A
C991       F1542   1.358       .  S
C992        C993   1.408       .  A
C992       F1541   1.358       .  S
C993        C994   1.408       .  A
C994        F995   1.357       .  S
C999       C1000   1.407       .  A
C999       C1004   1.403   1_455  A
C999       F1550   1.358       .  S
C1000      C1001   1.408       .  A
C1001      C1002   1.394       .  A
C1001      F1008   1.359       .  S
C1002      C1003   1.405   1_455  A
C1002      F1007   1.358   1_455  S
C1003      C1004   1.408       .  A
C1004      F1549   1.357       .  S
C1009      C1010   1.406       .  A
C1009      C1014   1.399       .  A
C1009      F1016   1.358       .  S
C1010      C1011   1.409       .  A
C1011      C1012   1.399       .  A
C1011      F1018   1.357       .  S
C1012      C1013   1.404       .  A
C1013      C1014   1.407       .  A
C1014      F1015   1.358       .  S
F1017      C1556   1.358       .  S
C1019      C1020   1.407   1_545  A
C1019      C1024   1.392       .  A
C1019      F1026   1.359   1_545  S
C1020      C1021   1.408       .  A
C1021      C1022   1.404   1_565  A
C1021      F1028   1.357       .  S
C1022      C1023   1.405       .  A
C1022      F1027   1.358       .  S
C1023      C1024   1.402       .  A
C1024      F1025   1.359       .  S
C1029      C1030   1.408       .  A
C1029      C1034   1.403       .  A
C1029      F1036   1.357       .  S
C1030      C1031   1.405       .  A
C1031      C1032   1.394       .  A
C1031      F1038   1.359       .  S
C1032      C1033   1.404       .  A
C1032      F1037   1.359       .  S
C1033      C1034   1.405       .  A
C1034      F1035   1.358       .  S
C1039      C1040   1.408       .  A
C1039      C1044   1.398       .  A
C1039      F1046   1.358       .  S
C1040      C1041   1.412       .  A
C1041      C1042   1.399       .  A
C1041      F1048   1.358       .  S
C1042      C1043   1.402       .  A
C1043      C1044   1.405       .  A
C1044      F1045   1.358       .  S
F1047      C1586   1.358       .  S
C1049      C1054   1.392       .  A
C1049      F1056   1.359       .  S
C1050      C1593   1.403       .  A
C1050      C1595   1.407       .  A
C1051      C1052   1.403       .  A
C1052      C1053   1.408       .  A
C1052      F1057   1.358       .  S
C1053      C1054   1.408       .  A
C1054      F1055   1.359       .  S
F1058      C1595   1.357       .  S
C1059      C1064   1.394       .  A
C1059      F1066   1.358       .  S
C1060      C1603   1.402       .  A
C1060      C1061   1.404       .  A
C1061      C1062   1.403       .  A
C1061      F1068   1.358       .  S
C1062      C1607   1.408       .  A
C1062      F1067   1.357       .  S
C1063      C1064   1.408       .  A
C1064      F1065   1.358       .  S
C1069      C1070   1.401       .  A
C1069      C1074   1.397       .  A
C1069      F1076   1.358       .  S
C1070      C1615   1.405       .  A
C1071      C1072   1.400       .  A
C1071      F1078   1.358       .  S
C1072      F1077   1.358       .  S
C1073      C1616   1.408       .  A
C1073      C1074   1.411       .  A
C1074      F1075   1.358       .  S
C1079      C1080   1.404       .  A
C1079      C1084   1.398       .  A
C1079      F1086   1.358       .  S
C1080      C1081   1.408       .  A
C1081      C1082   1.399       .  A
C1081      F1088   1.358       .  S
C1082      C1083   1.405       .  A
C1082      F1087   1.358       .  S
C1083      C1084   1.408       .  A
C1084      F1085   1.358       .  S
O1089      C1099   1.266       .  A
O1089      V1641   1.906       .  S
O1090      V1097   1.904       .  S
O1091      V1097   1.892       .  S
O1092      C1102   1.262       .  A
O1092      V1641   1.895       .  S
O1093      C1102   1.265       .  A
O1093      V1098   1.903       .  S
O1094      C1101   1.264       .  A
O1094      V1098   1.904       .  S
O1095      C1100   1.263       .  A
O1095      V1098   1.891       .  S
O1096      C1099   1.261       .  A
O1096      V1098   1.890       .  S
V1098      V1641   2.086       .  T
C1099      C1624   1.475       .  S
C1100      O1634   1.264       .  A
C1100      C1594   1.474       .  S
C1101      O1635   1.263       .  A
C1101      C1604   1.468       .  S
C1102      C1614   1.472       .  S
O1103      C1113   1.267       .  A
O1103      V1111   1.907       .  S
O1104      C1114   1.266       .  A
O1104      V1111   1.909       .  S
O1105      C1115   1.262       .  A
O1105      V1111   1.889       .  S
O1106      C1116   1.263       .  A
O1106      V1111   1.893       .  S
O1107      C1116   1.267       .  A
O1107      V1112   1.906       .  S
O1108      C1115   1.266       .  A
O1108      V1112   1.909       .  S
O1109      C1114   1.262       .  A
O1109      V1112   1.887       .  S
O1110      C1113   1.261       .  A
O1110      V1112   1.890       .  S
V1111      V1112   2.082       .  T
C1113      C1627   1.476       .  S
C1114      C1564   1.476       .  S
C1115      C1577   1.472       .  S
C1116      C1584   1.483       .  S
O1117      C1671   1.266       .  A
O1117      V1125   1.907       .  S
O1118      C1128   1.267       .  A
O1118      V1125   1.912       .  S
O1119      C1129   1.262       .  A
O1119      V1125   1.886       .  S
O1120      C1130   1.262       .  A
O1120      V1125   1.889       .  S
O1121      V1126   1.908       .  S
O1122      V1126   1.911       .  S
O1123      V1126   1.888       .  S
O1124      C1127   1.262       .  A
O1124      V1126   1.893       .  S
V1125      V1670   2.084       .  T
C1127      C1557   1.476       .  S
C1128      O1667   1.262       .  A
C1128      C1537   1.479       .  S
C1129      O1666   1.267       .  A
C1129      C1544   1.479       .  S
C1130      O1665   1.267       .  A
C1130      C1617   1.482       .  S
O1131      C1141   1.267       .  A
O1131      V1139   1.908       .  S
O1132      C1142   1.266       .  A
O1132      V1139   1.908       .  S
O1133      C1143   1.263       .  A
O1133      V1139   1.889       .  S
O1134      C1144   1.261       .  A
O1134      V1139   1.891       .  S
O1135      C1144   1.267       .  A
O1135      V1140   1.908       .  S
O1136      C1143   1.267       .  A
O1136      V1140   1.911       .  S
O1137      C1142   1.263       .  A
O1137      V1140   1.891       .  S
O1138      C1141   1.262       .  A
O1138      V1140   1.894       .  S
V1139      V1140   2.081       .  T
C1141      C1554   1.479       .  S
C1142      C1514   1.477       .  S
C1143      C1524   1.484       .  S
C1144      C1587   1.473       .  S
O1145      C1155   1.266       .  A
O1145      V1153   1.905       .  S
O1146      C1700   1.265       .  A
O1146      V1697   1.907       .  S
O1147      C1157   1.261       .  A
O1147      V1153   1.890       .  S
O1148      C1158   1.261       .  A
O1148      V1153   1.881       .  S
O1149      C1158   1.267       .  A
O1149      V1154   1.912       .  S
O1150      C1157   1.265       .  A
O1150      V1154   1.905       .  S
O1151      C1156   1.262       .  A
O1151      V1154   1.889       .  S
O1152      C1155   1.261       .  A
O1152      V1154   1.891       .  S
V1153      V1154   2.087       .  T
C1155      C1507   1.472       .  S
C1156      C1484   1.475       .  S
C1157      C1494   1.469       .  S
C1158      C1597   1.478       .  S
O1159      C1169   1.266       .  A
O1159      V1167   1.907       .  S
O1160      C1170   1.264       .  A
O1160      V1167   1.904       .  S
O1161      C1171   1.261       .  A
O1161      V1167   1.892       .  S
O1162      C1172   1.263       .  A
O1162      V1167   1.895       .  S
O1163      C1172   1.264       .  A
O1163      V1168   1.904       .  S
O1164      C1171   1.266       .  A
O1164      V1168   1.907       .  S
O1165      C1170   1.263       .  A
O1165      V1168   1.890       .  S
O1166      C1169   1.261       .  A
O1166      V1168   1.889       .  S
V1167      V1168   2.088       .  T
C1169      C1504   1.475       .  S
C1170      C1467   1.474       .  S
C1171      C1474   1.472       .  S
C1172      C1534   1.472       .  S
O1173      V1181   1.907       .  S
O1174      C1184   1.265       .  A
O1174      V1181   1.909       .  S
O1175      C1185   1.263       .  A
O1175      V1181   1.895       .  S
O1176      C1186   1.261       .  A
O1176      V1181   1.887       .  S
O1177      C1730   1.265       .  A
O1177      V1182   1.908       .  S
O1178      C1729   1.265       .  A
O1178      V1182   1.899       .  S
O1179      C1728   1.263       .  A
O1179      V1182   1.891       .  S
O1180      C1183   1.262       .  A
O1180      V1182   1.893       .  S
V1182      V1725   2.086       .  T
C1183      O1717   1.266       .  A
C1183      C1454   1.478       .  S
C1184      C1447   1.476       .  S
C1185      C1497   1.480       .  S
C1186      C1567   1.469       .  S
O1187      C1197   1.266       .  A
O1187      V1195   1.906       .  S
O1188      C1198   1.266       .  A
O1188      V1195   1.911       .  S
O1189      C1199   1.261       .  A
O1189      V1195   1.887       .  S
O1190      C1200   1.263       .  A
O1190      V1195   1.890       .  S
O1191      C1200   1.266       .  A
O1191      V1196   1.909       .  S
O1192      C1199   1.268       .  A
O1192      V1196   1.912       .  S
O1193      C1198   1.261       .  A
O1193      V1196   1.886       .  S
O1194      C1197   1.262       .  A
O1194      V1196   1.894       .  S
V1195      V1196   2.086       .  T
C1197      C1457   1.478       .  S
C1198      C1437   1.477       .  S
C1199      C1477   1.482       .  S
C1200      C1517   1.481       .  S
O1201      C1211   1.267       .  A
O1201      V1753   1.910       .  S
O1202      V1209   1.910       .  S
O1203      V1209   1.888       .  S
O1204      C1214   1.261       .  A
O1204      V1753   1.890       .  S
O1205      C1214   1.266       .  A
O1205      V1210   1.906       .  S
O1206      C1213   1.267       .  A
O1206      V1210   1.908       .  S
O1207      C1212   1.263       .  A
O1207      V1210   1.890       .  S
O1208      C1211   1.262       .  A
O1208      V1210   1.893       .  S
V1210      V1753   2.081       .  T
C1211      C1427   1.480       .  S
C1212      O1746   1.266       .  A
C1212      C1404   1.478       .  S
C1213      O1747   1.263       .  A
C1213      C1487   1.482       .  S
C1214      C1414   1.471       .  S
O1215      C1225   1.266       .  A
O1215      V1223   1.906       .  S
O1216      C1226   1.266       .  A
O1216      V1223   1.912       .  S
O1217      C1227   1.261       .  A
O1217      V1223   1.884       .  S
O1218      C1228   1.262       .  A
O1218      V1223   1.893       .  S
O1219      C1228   1.266       .  A
O1219      V1224   1.905       .  S
O1220      C1227   1.268       .  A
O1220      V1224   1.915       .  S
O1221      C1226   1.262       .  A
O1221      V1224   1.889       .  S
O1222      C1225   1.262       .  A
O1222      V1224   1.895       .  S
V1223      V1224   2.086       .  T
C1225      C1424   1.477       .  S
C1226      C1387   1.477       .  S
C1227      C1444   1.482       .  S
C1228      C1394   1.482       .  S
O1229      C1783   1.266       .  A
O1229      V1237   1.905       .  S
O1230      C1240   1.265       .  A
O1230      V1237   1.906       .  S
O1231      C1241   1.262       .  A
O1231      V1237   1.888       .  S
O1232      C1242   1.263       .  A
O1232      V1237   1.892       .  S
O1233      V1238   1.904       .  S
O1234      V1238   1.907       .  S
O1235      V1238   1.888       .  S
O1236      C1239   1.261       .  A
O1236      V1238   1.890       .  S
V1237      V1782   2.082       .  T
C1239      C1377   1.474       .  S
C1240      O1779   1.262       .  A
C1240      C1364   1.475       .  S
C1241      O1778   1.265       .  A
C1241      C1464   1.470       .  S
C1242      O1777   1.267       .  A
C1242      C1417   1.481       .  S
O1243      C1253   1.266       .  A
O1243      V1251   1.906       .  S
O1244      C1254   1.264       .  A
O1244      V1251   1.904       .  S
O1245      C1255   1.263       .  A
O1245      V1251   1.892       .  S
O1246      C1256   1.262       .  A
O1246      V1251   1.894       .  S
O1247      C1256   1.265       .  A
O1247      V1252   1.905       .  S
O1248      C1255   1.265       .  A
O1248      V1252   1.905       .  S
O1249      C1254   1.263       .  A
O1249      V1252   1.889       .  S
O1250      C1253   1.261       .  A
O1250      V1252   1.888       .  S
V1251      V1252   2.086       .  T
C1253      C1374   1.473       .  S
C1254      C1357   1.473       .  S
C1255      C1434   1.470       .  S
C1256      C1397   1.473       .  S
O1257      C1267   1.266       .  A
O1257      V1265   1.905       .  S
O1258      C1812   1.266       .  A
O1258      V1809   1.910       .  S
O1259      C1269   1.262       .  A
O1259      V1265   1.893       .  S
O1260      C1270   1.262       .  A
O1260      V1265   1.888       .  S
O1261      C1270   1.266       .  A
O1261      V1266   1.911       .  S
O1262      C1269   1.268       .  A
O1262      V1266   1.909       .  S
O1263      C1268   1.261       .  A
O1263      V1266   1.887       .  S
O1264      C1267   1.262       .  A
O1264      V1266   1.893       .  S
V1265      V1266   2.084       .  T
C1267      C1347   1.475       .  S
C1268      C1607   1.477       .  S
C1269      C1334   1.484       .  S
C1270      C1407   1.479       .  S
O1271      C1281   1.267       .  A
O1271      V1279   1.907       .  S
O1272      C1282   1.265       .  A
O1272      V1279   1.905       .  S
O1273      C1283   1.261       .  A
O1273      V1279   1.889       .  S
O1274      C1284   1.262       .  A
O1274      V1279   1.888       .  S
O1275      C1284   1.264       .  A
O1275      V1280   1.904       .  S
O1276      C1283   1.265       .  A
O1276      V1280   1.903       .  S
O1277      C1282   1.264       .  A
O1277      V1280   1.893       .  S
O1278      C1281   1.262       .  A
O1278      V1280   1.891       .  S
V1279      V1280   2.085       .  T
C1281      C1344   1.476       .  S
C1282      C1547   1.477       .  S
C1283      C1324   1.468       .  S
C1284      C1367   1.466       .  S
O1285      V1293   1.907       .  S
O1286      C1296   1.265       .  A
O1286      V1293   1.907       .  S
O1287      C1297   1.261       .  A
O1287      V1293   1.891       .  S
O1288      C1298   1.264       .  A
O1288      V1293   1.894       .  S
O1289      C1842   1.266       .  A
O1289      V1294   1.907       .  S
O1290      C1841   1.267       .  A
O1290      V1294   1.910       .  S
O1291      C1840   1.262       .  A
O1291      V1294   1.889       .  S
O1292      C1295   1.262       .  A
O1292      V1294   1.892       .  S
V1294      V1837   2.085       .  T
C1295      O1829   1.266       .  A
C1295      C1317   1.477       .  S
C1296      C1574   1.475       .  S
C1297      C1337   1.474       .  S
C1298      C1384   1.483       .  S
O1299      C1309   1.265       .  A
O1299      V1307   1.904       .  S
O1300      C1310   1.266       .  A
O1300      V1307   1.910       .  S
O1301      C1311   1.262       .  A
O1301      V1307   1.891       .  S
O1302      C1312   1.261       .  A
O1302      V1307   1.882       .  S
O1303      C1312   1.266       .  A
O1303      V1308   1.910       .  S
O1304      C1311   1.266       .  A
O1304      V1308   1.902       .  S
O1305      C1310   1.262       .  A
O1305      V1308   1.888       .  S
O1306      C1309   1.262       .  A
O1306      V1308   1.894       .  S
V1307      V1308   2.086       .  T
C1309      C1314   1.475       .  S
C1310      C1527   1.476       .  S
C1311      C1327   1.477       .  S
C1312      C1354   1.477       .  S
C1313      C1314   1.404       .  A
C1313      C1318   1.398       .  A
C1313      F1320   1.358       .  S
C1314      C1315   1.407       .  A
C1315      C1316   1.399       .  A
C1315      F1322   1.358       .  S
C1316      C1317   1.405       .  A
C1316      F1865   1.358       .  S
C1317      C1318   1.408       .  A
C1318      F1319   1.358       .  S
C1323      C1324   1.402       .  A
C1323      C1328   1.398       .  A
C1323      F1330   1.358       .  S
C1324      C1325   1.405       .  A
C1325      C1326   1.397       .  A
C1325      F1332   1.358       .  S
C1326      C1327   1.407       .  A
C1326      F1331   1.358       .  S
C1327      C1328   1.410       .  A
C1328      F1329   1.358       .  S
C1333      C1334   1.408       .  A
C1333      C1338   1.400       .  A
C1333      F1340   1.358       .  S
C1334      C1335   1.412       .  A
C1335      C1336   1.400       .  A
C1336      C1337   1.402       .  A
C1337      C1338   1.406       .  A
C1338      F1339   1.358       .  S
F1341      C1880   1.358       .  S
F1342      C1879   1.358       .  S
C1343      C1344   1.408       .  A
C1343      C1348   1.399       .  A
C1343      F1350   1.358       .  S
C1344      C1345   1.405       .  A
C1345      C1346   1.399       .  A
C1345      F1352   1.358       .  S
C1346      C1347   1.407       .  A
C1346      F1351   1.358       .  S
C1347      C1348   1.405       .  A
F1349      C1892   1.358       .  S
C1353      C1354   1.408   1_545  A
C1353      C1358   1.403       .  A
C1353      F1360   1.358   1_545  S
C1354      C1355   1.408   1_565  A
C1355      C1356   1.391       .  A
C1355      F1362   1.359   1_545  S
C1356      C1357   1.403       .  A
C1356      F1361   1.359       .  S
C1357      C1358   1.407       .  A
C1358      F1359   1.357       .  S
C1363      C1364   1.408       .  A
C1363      C1368   1.402       .  A
C1363      F1370   1.357       .  S
C1364      C1365   1.407       .  A
C1365      C1366   1.393       .  A
C1365      F1916   1.359       .  S
C1366      C1367   1.402       .  A
C1366      F1371   1.358       .  S
C1367      C1368   1.404       .  A
C1368      F1369   1.358       .  S
C1373      C1374   1.404       .  A
C1373      C1378   1.398       .  A
C1373      F1380   1.358       .  S
C1374      C1375   1.407       .  A
C1375      C1376   1.398       .  A
C1375      F1382   1.358       .  S
C1376      C1377   1.404       .  A
C1377      C1378   1.408       .  A
C1378      F1379   1.358       .  S
F1381      C1920   1.358       .  S
C1383      C1384   1.408   1_545  A
C1383      C1388   1.395       .  A
C1383      F1390   1.358   1_545  S
C1384      C1385   1.410   1_565  A
C1385      C1386   1.404       .  A
C1386      C1387   1.406       .  A
C1386      F1391   1.357       .  S
C1387      C1388   1.405       .  A
C1388      F1389   1.359       .  S
F1392      C1929   1.358   1_565  S
C1393      C1394   1.408       .  A
C1393      C1398   1.399       .  A
C1393      F1400   1.358       .  S
C1394      C1395   1.411       .  A
C1395      C1396   1.399       .  A
C1395      F1402   1.358       .  S
C1396      C1397   1.402       .  A
C1397      C1398   1.405       .  A
C1398      F1399   1.358       .  S
F1401      C1940   1.358       .  S
C1403      C1404   1.405       .  A
C1403      C1408   1.394       .  A
C1403      F1410   1.359       .  S
C1404      C1949   1.407       .  A
C1405      C1406   1.405       .  A
C1405      F1412   1.357       .  S
C1406      C1407   1.408       .  A
C1406      F1411   1.358       .  S
C1408      C1951   1.407       .  A
C1408      F1409   1.359       .  S
C1413      C1418   1.398       .  A
C1413      F1420   1.358       .  S
C1414      C1957   1.405       .  A
C1414      C1415   1.402       .  A
C1415      C1416   1.399       .  A
C1415      F1422   1.358       .  S
C1416      C1417   1.411       .  A
C1416      F1421   1.358       .  S
C1417      C1962   1.408       .  A
C1418      F1419   1.358       .  S
C1423      C1424   1.407       .  A
C1423      C1428   1.400       .  A
C1423      F1430   1.357       .  S
C1424      C1425   1.404       .  A
C1425      C1426   1.399       .  A
C1425      F1432   1.358       .  S
C1426      C1427   1.409       .  A
C1426      F1431   1.358       .  S
C1427      C1428   1.406       .  A
C1428      F1973   1.358       .  S
C1433      C1434   1.402   1_455  A
C1433      C1438   1.394       .  A
C1433      F1440   1.358   1_455  S
C1434      C1435   1.405   1_655  A
C1435      C1436   1.403       .  A
C1435      F1442   1.358   1_455  S
C1436      C1437   1.408       .  A
C1436      F1441   1.357       .  S
C1437      C1438   1.407       .  A
C1438      F1439   1.359       .  S
C1443      C1444   1.409       .  A
C1443      C1448   1.405       .  A
C1443      F1450   1.358       .  S
C1444      C1445   1.409       .  A
C1445      C1446   1.393       .  A
C1445      F1452   1.359       .  S
C1446      C1447   1.403       .  A
C1447      C1448   1.407       .  A
C1448      F1449   1.357       .  S
F1451      C1990   1.359       .  S
C1453      C1458   1.399       .  A
C1453      F1460   1.358       .  S
C1454      C1997   1.405       .  A
C1454      C1455   1.409       .  A
C1455      C1456   1.399       .  A
C1455      F1462   1.358       .  S
C1456      C1457   1.405       .  A
C1456      F1461   1.358       .  S
C1457      C2002   1.408       .  A
C1458      F1459   1.357       .  S
C1463      C1464   1.405   1_455  A
C1463      C1468   1.402       .  A
C1463      F2014   1.358   1_455  S
C1464      C1465   1.404   1_655  A
C1465      C1466   1.393       .  A
C1465      F1472   1.359   1_455  S
C1466      C1467   1.405       .  A
C1466      F1471   1.359       .  S
C1467      C1468   1.408       .  A
C1468      F2013   1.357       .  S
C1473      C1474   1.406       .  A
C1473      C1478   1.401       .  A
C1473      F1480   1.358       .  S
C1474      C1475   1.401       .  A
C1475      C1476   1.398       .  A
C1475      F1482   1.358       .  S
C1476      C1477   1.411       .  A
C1476      F1481   1.358       .  S
C1477      C1478   1.407       .  A
C1478      F1479   1.358       .  S
C1483      C2028   1.406       .  A
C1483      C1488   1.403       .  A
C1483      F1490   1.357       .  S
C1484      C1485   1.404       .  A
C1485      C1486   1.393       .  A
C1485      F1492   1.359       .  S
C1486      F1491   1.358       .  S
C1487      C2030   1.409       .  A
C1487      C1488   1.410       .  A
C1488      F1489   1.358       .  S
C1493      C1494   1.402       .  A
C1493      C1498   1.399       .  A
C1493      F1500   1.358       .  S
C1494      C1495   1.404       .  A
C1495      C1496   1.396       .  A
C1495      F1502   1.358       .  S
C1496      C1497   1.408       .  A
C1497      C1498   1.411       .  A
C1498      F1499   1.358       .  S
F1501      C2040   1.358       .  S
C1503      C1504   1.404       .  A
C1503      C1508   1.399       .  A
C1503      F1510   1.358       .  S
C1504      C1505   1.408       .  A
C1505      C1506   1.398       .  A
C1505      F1512   1.358       .  S
C1506      C1507   1.403       .  A
C1506      F1511   1.358       .  S
C1507      C1508   1.407       .  A
C1508      F1509   1.358       .  S
C1513      C1514   1.407       .  A
C1513      C1518   1.404   1_565  A
C1513      F1520   1.357       .  S
C1514      C1515   1.405   1_565  A
C1515      C1516   1.394       .  A
C1515      F1522   1.359   1_545  S
C1516      C1517   1.407       .  A
C1516      F1521   1.358       .  S
C1517      C1518   1.409       .  A
C1518      F1519   1.358       .  S
C1523      C1524   1.410       .  A
C1523      C1528   1.405   1_455  A
C1523      F1530   1.358       .  S
C1524      C1525   1.409       .  A
C1525      C1526   1.393       .  A
C1525      F1532   1.358       .  S
C1526      C1527   1.404   1_455  A
C1526      F1531   1.359   1_455  S
C1527      C1528   1.406       .  A
C1528      F1529   1.357       .  S
C1533      C1534   1.405       .  A
C1533      C1538   1.404       .  A
C1533      F1540   1.358       .  S
C1534      C1535   1.402       .  A
C1535      C1536   1.395       .  A
C1535      F2086   1.358       .  S
C1536      C1537   1.408       .  A
C1536      F2085   1.358       .  S
C1537      C1538   1.408       .  A
C1538      F1539   1.357       .  S
C1543      C1544   1.407       .  A
C1543      C1548   1.403   1_455  A
C1543      F2094   1.358       .  S
C1544      C1545   1.408       .  A
C1545      C1546   1.394       .  A
C1545      F1552   1.359       .  S
C1546      C1547   1.405   1_455  A
C1546      F1551   1.358   1_455  S
C1547      C1548   1.408       .  A
C1548      F2093   1.357       .  S
C1553      C1554   1.406       .  A
C1553      C1558   1.399       .  A
C1553      F1560   1.358       .  S
C1554      C1555   1.409       .  A
C1555      C1556   1.399       .  A
C1555      F1562   1.357       .  S
C1556      C1557   1.404       .  A
C1557      C1558   1.407       .  A
C1558      F1559   1.358       .  S
F1561      C2100   1.358       .  S
C1563      C1564   1.407   1_545  A
C1563      C1568   1.392       .  A
C1563      F1570   1.359   1_545  S
C1564      C1565   1.408       .  A
C1565      C1566   1.404   1_565  A
C1565      F1572   1.357       .  S
C1566      C1567   1.405       .  A
C1566      F1571   1.358       .  S
C1567      C1568   1.402       .  A
C1568      F1569   1.359       .  S
C1573      C1574   1.408       .  A
C1573      C1578   1.403       .  A
C1573      F1580   1.357       .  S
C1574      C1575   1.405       .  A
C1575      C1576   1.394       .  A
C1575      F1582   1.359       .  S
C1576      C1577   1.404       .  A
C1576      F1581   1.359       .  S
C1577      C1578   1.405       .  A
C1578      F1579   1.358       .  S
C1583      C1584   1.408       .  A
C1583      C1588   1.399       .  A
C1583      F1590   1.358       .  S
C1584      C1585   1.412       .  A
C1585      C1586   1.399       .  A
C1585      F1592   1.358       .  S
C1586      C1587   1.402       .  A
C1587      C1588   1.405       .  A
C1588      F1589   1.358       .  S
F1591      C2130   1.358       .  S
C1593      C1598   1.392       .  A
C1593      F1600   1.359       .  S
C1594      C2137   1.403       .  A
C1594      C2139   1.407       .  A
C1595      C1596   1.403       .  A
C1596      C1597   1.408       .  A
C1596      F1601   1.358       .  S
C1597      C1598   1.408       .  A
C1598      F1599   1.359       .  S
F1602      C2139   1.357       .  S
C1603      C1608   1.394       .  A
C1603      F1610   1.358       .  S
C1604      C2147   1.402       .  A
C1604      C1605   1.404       .  A
C1605      C1606   1.403       .  A
C1605      F1612   1.358       .  S
C1606      C2151   1.408       .  A
C1606      F1611   1.357       .  S
C1607      C1608   1.408       .  A
C1608      F1609   1.358       .  S
C1613      C1614   1.401       .  A
C1613      C1618   1.397       .  A
C1613      F1620   1.358       .  S
C1614      C2159   1.405       .  A
C1615      C1616   1.400       .  A
C1615      F1622   1.358       .  S
C1616      F1621   1.358       .  S
C1617      C2160   1.408       .  A
C1617      C1618   1.411       .  A
C1618      F1619   1.358       .  S
C1623      C1624   1.404       .  A
C1623      C1628   1.398       .  A
C1623      F1630   1.358       .  S
C1624      C1625   1.408       .  A
C1625      C1626   1.399       .  A
C1625      F1632   1.358       .  S
C1626      C1627   1.405       .  A
C1626      F1631   1.358       .  S
C1627      C1628   1.408       .  A
C1628      F1629   1.358       .  S
O1633      C1643   1.266   1_554  A
O1634      V1641   1.904       .  S
O1635      V1641   1.892       .  S
O1636      C1646   1.262   1_554  A
O1637      C1646   1.265       .  A
O1637      V1642   1.903       .  S
O1638      C1645   1.264       .  A
O1638      V1642   1.904       .  S
O1639      C1644   1.263   1_556  A
O1639      V1642   1.891       .  S
O1640      C1643   1.261       .  A
O1640      V1642   1.890       .  S
C1643      C2168   1.475       .  S
C1644      C2138   1.474       .  S
C1645      C2148   1.468       .  S
C1646      C2158   1.472       .  S
O1647      C1657   1.267       .  A
O1647      V1655   1.907       .  S
O1648      C1658   1.266       .  A
O1648      V1655   1.909       .  S
O1649      C1659   1.262       .  A
O1649      V1655   1.889       .  S
O1650      C1660   1.263       .  A
O1650      V1655   1.893       .  S
O1651      C1660   1.267       .  A
O1651      V1656   1.906       .  S
O1652      C1659   1.266       .  A
O1652      V1656   1.909       .  S
O1653      C1658   1.262       .  A
O1653      V1656   1.887       .  S
O1654      C1657   1.261       .  A
O1654      V1656   1.890       .  S
V1655      V1656   2.082       .  T
C1657      C2171   1.476       .  S
C1658      C2108   1.476       .  S
C1659      C2121   1.472       .  S
C1660      C2128   1.483       .  S
O1661      V1669   1.907       .  S
O1662      C1672   1.267       .  A
O1662      V1669   1.912       .  S
O1663      C1673   1.262       .  A
O1663      V1669   1.886       .  S
O1664      C1674   1.262       .  A
O1664      V1669   1.889       .  S
O1665      V1670   1.908       .  S
O1666      V1670   1.911       .  S
O1667      V1670   1.888       .  S
O1668      C1671   1.262       .  A
O1668      V1670   1.893       .  S
C1671      C2101   1.476       .  S
C1672      C2081   1.479       .  S
C1673      C2088   1.479       .  S
C1674      C2161   1.482       .  S
O1675      C1685   1.267       .  A
O1675      V1683   1.908       .  S
O1676      C1686   1.266       .  A
O1676      V1683   1.908       .  S
O1677      C1687   1.263       .  A
O1677      V1683   1.889       .  S
O1678      C1688   1.261       .  A
O1678      V1683   1.891       .  S
O1679      C1688   1.267       .  A
O1679      V1684   1.908       .  S
O1680      C1687   1.267       .  A
O1680      V1684   1.911       .  S
O1681      C1686   1.263       .  A
O1681      V1684   1.891       .  S
O1682      C1685   1.262       .  A
O1682      V1684   1.894       .  S
V1683      V1684   2.081       .  T
C1685      C2098   1.479       .  S
C1686      C2058   1.477       .  S
C1687      C2068   1.484       .  S
C1688      C2131   1.473       .  S
O1689      C1699   1.266       .  A
O1689      V1697   1.905       .  S
O1691      C1701   1.261       .  A
O1691      V1697   1.890       .  S
O1692      C1702   1.261       .  A
O1692      V1697   1.881       .  S
O1693      C1702   1.267       .  A
O1693      V1698   1.912       .  S
O1694      C1701   1.265       .  A
O1694      V1698   1.905       .  S
O1695      C1700   1.262       .  A
O1695      V1698   1.889       .  S
O1696      C1699   1.261       .  A
O1696      V1698   1.891       .  S
V1697      V1698   2.087       .  T
C1699      C2051   1.472       .  S
C1700      C2028   1.475       .  S
C1701      C2038   1.469       .  S
C1702      C2141   1.478       .  S
O1703      C1713   1.266       .  A
O1703      V1711   1.907       .  S
O1704      C1714   1.264       .  A
O1704      V1711   1.904       .  S
O1705      C1715   1.261       .  A
O1705      V1711   1.892       .  S
O1706      C1716   1.263       .  A
O1706      V1711   1.895       .  S
O1707      C1716   1.264       .  A
O1707      V1712   1.904       .  S
O1708      C1715   1.266       .  A
O1708      V1712   1.907       .  S
O1709      C1714   1.263       .  A
O1709      V1712   1.890       .  S
O1710      C1713   1.261       .  A
O1710      V1712   1.889       .  S
V1711      V1712   2.088       .  T
C1713      C2048   1.475       .  S
C1714      C2011   1.474       .  S
C1715      C2018   1.472       .  S
C1716      C2078   1.472       .  S
O1717      V1725   1.907       .  S
O1718      C1728   1.265       .  A
O1718      V1725   1.909       .  S
O1719      C1729   1.263       .  A
O1719      V1725   1.895       .  S
O1720      C1730   1.261       .  A
O1720      V1725   1.887       .  S
O1721      V1726   1.908       .  S
O1722      V1726   1.899       .  S
O1723      V1726   1.891   1_554  S
O1724      C1727   1.262   1_556  A
O1724      V1726   1.893       .  S
C1727      C1998   1.478   1_554  S
C1728      C1991   1.476       .  S
C1729      C2041   1.480       .  S
C1730      C2111   1.469       .  S
O1731      C1741   1.266       .  A
O1731      V1739   1.906       .  S
O1732      C1742   1.266       .  A
O1732      V1739   1.911       .  S
O1733      C1743   1.261       .  A
O1733      V1739   1.887       .  S
O1734      C1744   1.263       .  A
O1734      V1739   1.890       .  S
O1735      C1744   1.266       .  A
O1735      V1740   1.909       .  S
O1736      C1743   1.268       .  A
O1736      V1740   1.912       .  S
O1737      C1742   1.261       .  A
O1737      V1740   1.886       .  S
O1738      C1741   1.262       .  A
O1738      V1740   1.894       .  S
V1739      V1740   2.086       .  T
C1741      C2001   1.478       .  S
C1742      C1981   1.477       .  S
C1743      C2021   1.482       .  S
C1744      C2061   1.481       .  S
O1745      C1755   1.267   1_554  A
O1746      V1753   1.910       .  S
O1747      V1753   1.888       .  S
O1748      C1758   1.261   1_554  A
O1749      C1758   1.266       .  A
O1749      V1754   1.906       .  S
O1750      C1757   1.267       .  A
O1750      V1754   1.908       .  S
O1751      C1756   1.263   1_556  A
O1751      V1754   1.890       .  S
O1752      C1755   1.262       .  A
O1752      V1754   1.893       .  S
C1755      C1971   1.480       .  S
C1756      C1948   1.478       .  S
C1757      C2031   1.482       .  S
C1758      C1958   1.471       .  S
O1759      C1769   1.266       .  A
O1759      V1767   1.906       .  S
O1760      C1770   1.266       .  A
O1760      V1767   1.912       .  S
O1761      C1771   1.261       .  A
O1761      V1767   1.884       .  S
O1762      C1772   1.262       .  A
O1762      V1767   1.893       .  S
O1763      C1772   1.266       .  A
O1763      V1768   1.905       .  S
O1764      C1771   1.268       .  A
O1764      V1768   1.915       .  S
O1765      C1770   1.262       .  A
O1765      V1768   1.889       .  S
O1766      C1769   1.262       .  A
O1766      V1768   1.895       .  S
V1767      V1768   2.086       .  T
C1769      C1968   1.477       .  S
C1770      C1931   1.477       .  S
C1771      C1988   1.482       .  S
C1772      C1938   1.482       .  S
O1773      V1781   1.904       .  S
O1774      C1784   1.265       .  A
O1774      V1781   1.906       .  S
O1775      C1785   1.262       .  A
O1775      V1781   1.888       .  S
O1776      C1786   1.263       .  A
O1776      V1781   1.892       .  S
O1777      V1782   1.904       .  S
O1778      V1782   1.907       .  S
O1779      V1782   1.888       .  S
O1780      C1783   1.261       .  A
O1780      V1782   1.890       .  S
C1783      C1921   1.474       .  S
C1784      C1908   1.475       .  S
C1785      C2008   1.470       .  S
C1786      C1961   1.481       .  S
O1787      C1797   1.266       .  A
O1787      V1795   1.906       .  S
O1788      C1798   1.264       .  A
O1788      V1795   1.904       .  S
O1789      C1799   1.263       .  A
O1789      V1795   1.892       .  S
O1790      C1800   1.262       .  A
O1790      V1795   1.894       .  S
O1791      C1800   1.265       .  A
O1791      V1796   1.905       .  S
O1792      C1799   1.265       .  A
O1792      V1796   1.905       .  S
O1793      C1798   1.263       .  A
O1793      V1796   1.889       .  S
O1794      C1797   1.261       .  A
O1794      V1796   1.888       .  S
V1795      V1796   2.086       .  T
C1797      C1918   1.473       .  S
C1798      C1901   1.473       .  S
C1799      C1978   1.470       .  S
C1800      C1941   1.473       .  S
O1801      C1811   1.266       .  A
O1801      V1809   1.904       .  S
O1803      C1813   1.262       .  A
O1803      V1809   1.893       .  S
O1804      C1814   1.262       .  A
O1804      V1809   1.888       .  S
O1805      C1814   1.266       .  A
O1805      V1810   1.911       .  S
O1806      C1813   1.268       .  A
O1806      V1810   1.909       .  S
O1807      C1812   1.261       .  A
O1807      V1810   1.887       .  S
O1808      C1811   1.262       .  A
O1808      V1810   1.893       .  S
V1809      V1810   2.084       .  T
C1811      C1891   1.475       .  S
C1812      C2151   1.477       .  S
C1813      C1878   1.484       .  S
C1814      C1951   1.479       .  S
O1815      C1825   1.267       .  A
O1815      V1823   1.907       .  S
O1816      C1826   1.265       .  A
O1816      V1823   1.905       .  S
O1817      C1827   1.261       .  A
O1817      V1823   1.889       .  S
O1818      C1828   1.262       .  A
O1818      V1823   1.888       .  S
O1819      C1828   1.264       .  A
O1819      V1824   1.904       .  S
O1820      C1827   1.265       .  A
O1820      V1824   1.903       .  S
O1821      C1826   1.264       .  A
O1821      V1824   1.893       .  S
O1822      C1825   1.262       .  A
O1822      V1824   1.891       .  S
V1823      V1824   2.085       .  T
C1825      C1888   1.476       .  S
C1826      C2091   1.477       .  S
C1827      C1868   1.468       .  S
C1828      C1911   1.466       .  S
O1829      V1837   1.907       .  S
O1830      C1840   1.265       .  A
O1830      V1837   1.907       .  S
O1831      C1841   1.261       .  A
O1831      V1837   1.891       .  S
O1832      C1842   1.264       .  A
O1832      V1837   1.894       .  S
O1833      V1838   1.907       .  S
O1834      V1838   1.910       .  S
O1835      V1838   1.889       .  S
O1836      C1839   1.262   1_556  A
O1836      V1838   1.892       .  S
C1839      C1861   1.477   1_554  S
C1840      C2118   1.475       .  S
C1841      C1881   1.474       .  S
C1842      C1928   1.483       .  S
O1843      C1853   1.265       .  A
O1843      V1851   1.904       .  S
O1844      C1854   1.266       .  A
O1844      V1851   1.910       .  S
O1845      C1855   1.262       .  A
O1845      V1851   1.890       .  S
O1846      C1856   1.261       .  A
O1846      V1851   1.882       .  S
O1847      C1856   1.266       .  A
O1847      V1852   1.910       .  S
O1848      C1855   1.266       .  A
O1848      V1852   1.902       .  S
O1849      C1854   1.262       .  A
O1849      V1852   1.888       .  S
O1850      C1853   1.262       .  A
O1850      V1852   1.894       .  S
V1851      V1852   2.086       .  T
C1853      C1858   1.475       .  S
C1854      C2071   1.476       .  S
C1855      C1871   1.477       .  S
C1856      C1898   1.477       .  S
C1857      C1858   1.404       .  A
C1857      C1862   1.398       .  A
C1857      F1864   1.358       .  S
C1858      C1859   1.407   1_556  A
C1859      C1860   1.399       .  A
C1859      F1866   1.358       .  S
C1860      C1861   1.405   1_554  A
C1861      C1862   1.408       .  A
C1862      F1863   1.358       .  S
C1867      C1868   1.402       .  A
C1867      C1872   1.398       .  A
C1867      F1874   1.358       .  S
C1868      C1869   1.405       .  A
C1869      C1870   1.397       .  A
C1869      F1876   1.358       .  S
C1870      C1871   1.407       .  A
C1870      F1875   1.358       .  S
C1871      C1872   1.410       .  A
C1872      F1873   1.358       .  S
C1877      C1878   1.408       .  A
C1877      C1882   1.400       .  A
C1877      F1884   1.358       .  S
C1878      C1879   1.412       .  A
C1879      C1880   1.400       .  A
C1880      C1881   1.402       .  A
C1881      C1882   1.406       .  A
C1882      F1883   1.358       .  S
C1887      C1888   1.408       .  A
C1887      C1892   1.399       .  A
C1887      F1894   1.358       .  S
C1888      C1889   1.405       .  A
C1889      C1890   1.399       .  A
C1889      F1896   1.358       .  S
C1890      C1891   1.407       .  A
C1890      F1895   1.358       .  S
C1891      C1892   1.405       .  A
C1897      C1898   1.408   1_545  A
C1897      C1902   1.403       .  A
C1897      F1904   1.358   1_545  S
C1898      C1899   1.408   1_565  A
C1899      C1900   1.391       .  A
C1899      F1906   1.359   1_545  S
C1900      C1901   1.403       .  A
C1900      F1905   1.359       .  S
C1901      C1902   1.407       .  A
C1902      F1903   1.357       .  S
C1907      C1908   1.408       .  A
C1907      C1912   1.402       .  A
C1907      F1914   1.357       .  S
C1908      C1909   1.407       .  A
C1909      C1910   1.393       .  A
C1910      C1911   1.402       .  A
C1910      F1915   1.358   1_556  S
C1911      C1912   1.404       .  A
C1912      F1913   1.358       .  S
C1917      C1918   1.404       .  A
C1917      C1922   1.398       .  A
C1917      F1924   1.358       .  S
C1918      C1919   1.407       .  A
C1919      C1920   1.398       .  A
C1919      F1926   1.358       .  S
C1920      C1921   1.404       .  A
C1921      C1922   1.408       .  A
C1922      F1923   1.358       .  S
C1927      C1928   1.408   1_545  A
C1927      C1932   1.395       .  A
C1927      F1934   1.358   1_545  S
C1928      C1929   1.410   1_565  A
C1929      C1930   1.404       .  A
C1930      C1931   1.406       .  A
C1930      F1935   1.357       .  S
C1931      C1932   1.405       .  A
C1932      F1933   1.359       .  S
C1937      C1938   1.408       .  A
C1937      C1942   1.399       .  A
C1937      F1944   1.358       .  S
C1938      C1939   1.411       .  A
C1939      C1940   1.399       .  A
C1939      F1946   1.358       .  S
C1940      C1941   1.402       .  A
C1941      C1942   1.405       .  A
C1942      F1943   1.358       .  S
C1947      C1948   1.405   1_556  A
C1947      C1952   1.394       .  A
C1947      F1954   1.359       .  S
C1949      C1950   1.405       .  A
C1949      F1956   1.357       .  S
C1950      C1951   1.408       .  A
C1950      F1955   1.358       .  S
C1952      F1953   1.359       .  S
C1957      C1962   1.398       .  A
C1957      F1964   1.358       .  S
C1958      C1959   1.402       .  A
C1959      C1960   1.399       .  A
C1959      F1966   1.358       .  S
C1960      C1961   1.411       .  A
C1960      F1965   1.358       .  S
C1962      F1963   1.358       .  S
C1967      C1968   1.407       .  A
C1967      C1972   1.400       .  A
C1967      F1974   1.357       .  S
C1968      C1969   1.404       .  A
C1969      C1970   1.399       .  A
C1969      F1976   1.358       .  S
C1970      C1971   1.409       .  A
C1970      F1975   1.358       .  S
C1971      C1972   1.406       .  A
C1977      C1978   1.402   1_455  A
C1977      C1982   1.394       .  A
C1977      F1984   1.358   1_455  S
C1978      C1979   1.405   1_655  A
C1979      C1980   1.403       .  A
C1979      F1986   1.358   1_455  S
C1980      C1981   1.408       .  A
C1980      F1985   1.357       .  S
C1981      C1982   1.407       .  A
C1982      F1983   1.359       .  S
C1987      C1988   1.409       .  A
C1987      C1992   1.405       .  A
C1987      F1994   1.358       .  S
C1988      C1989   1.409       .  A
C1989      C1990   1.393       .  A
C1989      F1996   1.359       .  S
C1990      C1991   1.403       .  A
C1991      C1992   1.407       .  A
C1992      F1993   1.357       .  S
C1997      C2002   1.399       .  A
C1997      F2004   1.358       .  S
C1998      C1999   1.409       .  A
C1999      C2000   1.399       .  A
C1999      F2006   1.358       .  S
C2000      C2001   1.405       .  A
C2000      F2005   1.358       .  S
C2002      F2003   1.357       .  S
C2007      C2008   1.405   1_454  A
C2007      C2012   1.402       .  A
C2008      C2009   1.404   1_655  A
C2009      C2010   1.393       .  A
C2009      F2016   1.359   1_455  S
C2010      C2011   1.405       .  A
C2010      F2015   1.359       .  S
C2011      C2012   1.408   1_556  A
C2017      C2018   1.406       .  A
C2017      C2022   1.401       .  A
C2017      F2024   1.358   1_556  S
C2018      C2019   1.401       .  A
C2019      C2020   1.398       .  A
C2019      F2026   1.358       .  S
C2020      C2021   1.411       .  A
C2020      F2025   1.358       .  S
C2021      C2022   1.407       .  A
C2022      F2023   1.358   1_556  S
C2027      C2032   1.403       .  A
C2027      F2034   1.357       .  S
C2028      C2029   1.404       .  A
C2029      C2030   1.393       .  A
C2029      F2036   1.359       .  S
C2030      F2035   1.358       .  S
C2031      C2032   1.410       .  A
C2032      F2033   1.358       .  S
C2037      C2038   1.402       .  A
C2037      C2042   1.399       .  A
C2037      F2044   1.358       .  S
C2038      C2039   1.404       .  A
C2039      C2040   1.396       .  A
C2039      F2046   1.358       .  S
C2040      C2041   1.408       .  A
C2041      C2042   1.411       .  A
C2042      F2043   1.358       .  S
C2047      C2048   1.404       .  A
C2047      C2052   1.399       .  A
C2047      F2054   1.358       .  S
C2048      C2049   1.408       .  A
C2049      C2050   1.398       .  A
C2049      F2056   1.358       .  S
C2050      C2051   1.403       .  A
C2050      F2055   1.358       .  S
C2051      C2052   1.407       .  A
C2052      F2053   1.358       .  S
C2057      C2058   1.407       .  A
C2057      C2062   1.404   1_565  A
C2057      F2064   1.357       .  S
C2058      C2059   1.405   1_565  A
C2059      C2060   1.394       .  A
C2059      F2066   1.359   1_545  S
C2060      C2061   1.407       .  A
C2060      F2065   1.358       .  S
C2061      C2062   1.409       .  A
C2062      F2063   1.358       .  S
C2067      C2068   1.410       .  A
C2067      C2072   1.405   1_455  A
C2067      F2074   1.358       .  S
C2068      C2069   1.409       .  A
C2069      C2070   1.393       .  A
C2069      F2076   1.358       .  S
C2070      C2071   1.404   1_455  A
C2070      F2075   1.359   1_455  S
C2071      C2072   1.406       .  A
C2072      F2073   1.357       .  S
C2077      C2078   1.405       .  A
C2077      C2082   1.404       .  A
C2077      F2084   1.358       .  S
C2078      C2079   1.402       .  A
C2079      C2080   1.395       .  A
C2080      C2081   1.408       .  A
C2081      C2082   1.408       .  A
C2082      F2083   1.357       .  S
C2087      C2088   1.407   1_554  A
C2087      C2092   1.403   1_454  A
C2088      C2089   1.408       .  A
C2089      C2090   1.394       .  A
C2089      F2096   1.359       .  S
C2090      C2091   1.405   1_455  A
C2090      F2095   1.358   1_455  S
C2091      C2092   1.408       .  A
C2097      C2098   1.406       .  A
C2097      C2102   1.399       .  A
C2097      F2104   1.358       .  S
C2098      C2099   1.409       .  A
C2099      C2100   1.399       .  A
C2099      F2106   1.357       .  S
C2100      C2101   1.404       .  A
C2101      C2102   1.407       .  A
C2102      F2103   1.358       .  S
C2107      C2108   1.407   1_545  A
C2107      C2112   1.392       .  A
C2107      F2114   1.359   1_545  S
C2108      C2109   1.408       .  A
C2109      C2110   1.404   1_565  A
C2109      F2116   1.357       .  S
C2110      C2111   1.405       .  A
C2110      F2115   1.358       .  S
C2111      C2112   1.402       .  A
C2112      F2113   1.359       .  S
C2117      C2118   1.408       .  A
C2117      C2122   1.403       .  A
C2117      F2124   1.357       .  S
C2118      C2119   1.405       .  A
C2119      C2120   1.394       .  A
C2119      F2126   1.359       .  S
C2120      C2121   1.405       .  A
C2120      F2125   1.359       .  S
C2121      C2122   1.405       .  A
C2122      F2123   1.358       .  S
C2127      C2128   1.408       .  A
C2127      C2132   1.399       .  A
C2127      F2134   1.358       .  S
C2128      C2129   1.412       .  A
C2129      C2130   1.399       .  A
C2129      F2136   1.358       .  S
C2130      C2131   1.402       .  A
C2131      C2132   1.405       .  A
C2132      F2133   1.358       .  S
C2137      C2142   1.392       .  A
C2137      F2144   1.359       .  S
C2139      C2140   1.403       .  A
C2140      C2141   1.408       .  A
C2140      F2145   1.358       .  S
C2141      C2142   1.408       .  A
C2142      F2143   1.359       .  S
C2147      C2152   1.394       .  A
C2147      F2154   1.358       .  S
C2148      C2149   1.404       .  A
C2149      C2150   1.403       .  A
C2149      F2156   1.358       .  S
C2150      F2155   1.357       .  S
C2151      C2152   1.408       .  A
C2152      F2153   1.358       .  S
C2157      C2158   1.401       .  A
C2157      C2162   1.397       .  A
C2157      F2164   1.358       .  S
C2159      C2160   1.400       .  A
C2159      F2166   1.358       .  S
C2160      F2165   1.358       .  S
C2161      C2162   1.411       .  A
C2162      F2163   1.358       .  S
C2167      C2168   1.404       .  A
C2167      C2172   1.398       .  A
C2167      F2174   1.358   1_556  S
C2168      C2169   1.408       .  A
C2169      C2170   1.399       .  A
C2169      F2176   1.358       .  S
C2170      C2171   1.405       .  A
C2170      F2175   1.358       .  S
C2171      C2172   1.408       .  A
C2172      F2173   1.358       .  S
