geometry optimzed in LAMMPS
_audit_creation_date              2020-12-01 
_audit_creation_method            'lammps2cif' 
_symmetry_space_group_name_H-M    'P1' 
_symmetry_Int_Tables_number       1 
_symmetry_cell_setting            triclinic 
loop_ 
_symmetry_equiv_pos_as_xyz 
  x,y,z 
_cell_length_a                    42.37008928 
_cell_length_b                    42.553035183265955 
_cell_length_c                    42.498470055945475 
_cell_angle_alpha                 90.2371084320032 
_cell_angle_beta                  89.81055821254871 
_cell_angle_gamma                 90.04673052980428 
loop_ 
_atom_site_label 
_atom_site_type_symbol 
_atom_site_fract_x 
_atom_site_fract_y 
_atom_site_fract_z 
_atom_site_charge 
C1          C  0.07203166  0.72206381  0.95117276     0.80500
N2          N  0.07310172  0.71986740  0.91941506    -0.77800
C3          C  0.05830552  0.69643994  0.90362582     0.83000
N4          N  0.04182858  0.67452856  0.92045475    -0.77700
C5          C  0.04022185  0.67638597  0.95261839     0.83100
N6          N  0.05542912  0.70024248  0.96780904    -0.79400
C7          C  0.85014187  0.70332115  0.95579379     0.80500
N8          N  0.86645289  0.68069513  0.97160620    -0.77800
C9          C  0.89846417  0.67829010  0.96792017     0.83000
N10         N  0.91369987  0.69806646  0.94781991    -0.77700
C11         C  0.89710542  0.71998577  0.93154396     0.83100
N12         N  0.86572681  0.72255607  0.93595125    -0.79400
C13         C  0.88991356  0.69878826  0.15306869     0.80500
N14         N  0.86187694  0.70768962  0.14115390    -0.77800
C15         C  0.85166193  0.69621396  0.11334857     0.83000
N16         N  0.87013117  0.67561116  0.09678441    -0.77700
C17         C  0.89910017  0.66715082  0.10809711     0.83100
N18         N  0.90858806  0.67832946  0.13667371    -0.79400
C19         C  0.05976038  0.68280211  0.16310632     0.80500
N20         N  0.08942897  0.69075943  0.15476475    -0.77800
C21         C  0.10126045  0.68345736  0.12610427     0.83000
N22         N  0.08247632  0.66814176  0.10500267    -0.77700
C23         C  0.05216110  0.66034293  0.11269726     0.83100
N24         N  0.04091511  0.66741588  0.14207246    -0.79400
C25         C  0.88691393  0.43444705  0.14978289     0.80500
N26         N  0.87022817  0.41311684  0.13289657    -0.77800
C27         C  0.87132376  0.41226034  0.10113253     0.83000
N28         N  0.88931695  0.43362461  0.08543096    -0.77700
C29         C  0.90590823  0.45582919  0.10156695     0.83100
N30         N  0.90464058  0.45617005  0.13384813    -0.79400
C31         C  0.84451569  0.45312230  0.92825199     0.80500
N32         N  0.86376247  0.46632546  0.95037373    -0.77800
C33         C  0.89487222  0.47194164  0.94386236     0.83000
N34         N  0.90642088  0.46480938  0.91457601    -0.77700
C35         C  0.88710584  0.45151084  0.89254180     0.83100
N36         N  0.85663408  0.44587532  0.89970470    -0.79400
C37         C  0.09736704  0.43657520  0.94060357     0.80500
N38         N  0.07864840  0.45627381  0.95791715    -0.77800
C39         C  0.05013180  0.46581150  0.94648038     0.83000
N40         N  0.04117347  0.45636887  0.91708915    -0.77700
C41         C  0.05992686  0.43656656  0.89993544     0.83100
N42         N  0.08770105  0.42668350  0.91193233    -0.79400
C43         C  0.05023457  0.41648751  0.13153220     0.80500
N44         N  0.08166699  0.41336372  0.12808075    -0.77800
C45         C  0.09766182  0.42976982  0.10617239     0.83000
N46         N  0.08188574  0.45087521  0.08784838    -0.77700
C47         C  0.04984580  0.45417169  0.09081812     0.83100
N48         N  0.03412020  0.43680879  0.11277704    -0.79400
O49         O  0.02733571  0.62296641  0.95991450    -0.75000
O50         O  0.01002419  0.65823782  0.99693125    -0.53900
C51         C  0.02458603  0.65106472  0.97100202     0.78700
O52         O  0.90592717  0.52119599  0.96486589    -0.59600
O53         O  0.93565575  0.48025665  0.98305957    -0.52600
C54         C  0.91348377  0.49203213  0.96559746     0.70800
O55         O  0.90693683  0.62442226  0.97643642    -0.74100
O56         O  0.93976989  0.65943516  0.00101654    -0.54700
C57         C  0.91614048  0.65250813  0.98303955     0.76800
O58         O  0.03576981  0.51797879  0.95896820    -0.59300
O59         O  0.01008861  0.47821959  0.98473141    -0.52400
C60         C  0.03056288  0.48867142  0.96455790     0.73400
Zr61       Zr  0.01713255  0.56928278  0.97773525     2.54700
O62         O  0.01227288  0.56891467  0.92067689    -0.79900
O63         O  0.07453836  0.57299467  0.97815527    -0.93300
Zr64       Zr  0.92432827  0.57069669  0.98641434     2.64700
O65         O  0.91888598  0.57786101  0.92983487    -0.98200
O66         O  0.86775261  0.57099720  0.99669509    -0.80300
O67         O  0.97139535  0.60078160  0.98452306    -0.83600
O68         O  0.97001691  0.53905549  0.97869179    -2.18400
O69         O  0.04231299  0.50764495  0.07973178    -0.67000
O70         O  0.00942308  0.47237687  0.05557745    -0.51600
C71         C  0.03292010  0.47948844  0.07380425     0.71700
O72         O  0.91347089  0.61462905  0.09654620    -0.59900
O73         O  0.93960723  0.65413701  0.07086093    -0.51900
C74         C  0.91885351  0.64392134  0.09080332     0.73500
O75         O  0.91941255  0.50922104  0.09479464    -0.71300
O76         O  0.93826169  0.47377284  0.05864576    -0.50000
C77         C  0.92260703  0.48107376  0.08394406     0.74900
O78         O  0.04101061  0.61045041  0.09295613    -0.66700
O79         O  0.01275590  0.65145147  0.07276988    -0.53900
C80         C  0.03388901  0.63969623  0.09135928     0.73300
Zr81       Zr  0.02493478  0.56120405  0.06902966     2.77500
O82         O  0.03349231  0.55626977  0.12546150    -0.97400
O83         O  0.08078241  0.56305099  0.05547946    -0.78200
Zr84       Zr  0.93192542  0.56288135  0.07808371     2.70100
O85         O  0.93755536  0.56331045  0.13505970    -0.79500
O86         O  0.87450630  0.56021799  0.07929707    -0.98600
Zr87       Zr  0.97611244  0.62825539  0.03354086     2.21500
Zr88       Zr  0.97293781  0.50337943  0.02225756     2.11100
O89         O  0.97773286  0.53131498  0.07125643    -2.47300
O90         O  0.97927430  0.59277999  0.07699400    -0.79300
O91         O  0.02028525  0.53397215  0.02063805    -0.71500
O92         O  0.92868276  0.59763516  0.03480762    -2.32400
O93         O  0.02248202  0.59677757  0.02627214    -2.28600
O94         O  0.92675143  0.53529730  0.02947470    -0.73200
H95         H  0.96854237  0.52776397  0.95924205     0.78800
H96         H  0.91016519  0.61093950  0.03698669     0.79900
H97         H  0.97928297  0.51671598  0.08877686     0.82100
H98         H  0.04101886  0.60978265  0.02598072     0.79700
H99         H  0.86326598  0.55024251  0.00614736     0.42700
H100        H  0.86913465  0.54141181  0.06660791     0.41700
H101        H  0.91703269  0.55548838  0.14305883     0.41400
H102        H  0.02080888  0.53782736  0.13191210     0.39300
H103        H  0.09125836  0.57096412  0.07473910     0.42400
H104        H  0.07927869  0.59519051  0.98338098     0.37200
H105        H  0.98935697  0.57115157  0.91682050     0.43300
H106        H  0.92750953  0.55845579  0.92019049     0.39700
H107        H  0.05571164  0.54938201  0.12749407     0.44700
H108        H  0.08079980  0.57073136  0.95579633     0.43400
H109        H  0.89586405  0.57665476  0.92602436     0.43500
H110        H  0.86925474  0.55425988  0.10119742     0.43900
C111        C  0.59761417  0.98285820  0.15287176     0.80500
N112        N  0.58087228  0.99959146  0.13127513    -0.77800
C113        C  0.57110234  0.98556906  0.10398090     0.83000
N114        N  0.57761467  0.95443034  0.09904985    -0.77700
C115        C  0.59463189  0.93792849  0.12072293     0.83100
N116        N  0.60456614  0.95245794  0.14718608    -0.79400
C117        C  0.59368870  0.96907493  0.89820410     0.80500
N118        N  0.60568789  0.94356601  0.91265213    -0.77800
C119        C  0.60054111  0.93807345  0.94342639     0.83000
N120        N  0.58301196  0.95868325  0.96073776    -0.77700
C121        C  0.57110204  0.98498511  0.94699053     0.83100
N122        N  0.57608654  0.98984387  0.91555214    -0.79400
C123        C  0.60861064  0.18833354  0.94085239     0.80500
N124        N  0.58618507  0.17265826  0.95794996    -0.77800
C125        C  0.58731037  0.14052067  0.96068542     0.83000
N126        N  0.61068791  0.12425451  0.94563225    -0.77700
C127        C  0.63268618  0.13977943  0.92812659     0.83100
N128        N  0.63148844  0.17140476  0.92644726    -0.79400
C129        C  0.62856033  0.16675564  0.09702296     0.80500
N130        N  0.63065815  0.16675131  0.12865824    -0.77800
C131        C  0.61106020  0.14936090  0.14661541     0.83000
N132        N  0.58823047  0.13156141  0.13241287    -0.77700
C133        C  0.58600162  0.13095342  0.10023972     0.83100
N134        N  0.60626790  0.14865219  0.08272229    -0.79400
C135        C  0.34815525  0.19450459  0.93681142     0.80500
N136        N  0.33824178  0.18130577  0.90960040    -0.77800
C137        C  0.34762557  0.15209522  0.90129878     0.83000
N138        N  0.36675302  0.13542169  0.92081718    -0.77700
C139        C  0.37610717  0.14798209  0.94886026     0.83100
N140        N  0.36722776  0.17787813  0.95652140    -0.79400
C141        C  0.33621848  0.98901439  0.90207314     0.80500
N142        N  0.35934261  0.00595831  0.91676427    -0.77800
C143        C  0.36165518  0.00552250  0.94888498     0.83000
N144        N  0.34117725  0.98752700  0.96588347    -0.77700
C145        C  0.31874210  0.97002051  0.95103083     0.83100
N146        N  0.31672231  0.97093463  0.91940951    -0.79400
C147        C  0.31701087  0.99283201  0.12258650     0.80500
N148        N  0.33876185  0.00885436  0.10529896    -0.77800
C149        C  0.36229857  0.99304238  0.09009873     0.83000
N150        N  0.36402604  0.96094977  0.09255927    -0.77700
C151        C  0.34210388  0.94486369  0.10979532     0.83100
N152        N  0.31909361  0.96130540  0.12443369    -0.79400
C153        C  0.35083488  0.19419514  0.11336425     0.80500
N154        N  0.34553791  0.18720994  0.14381983    -0.77800
C155        C  0.35574143  0.15996629  0.15645610     0.83000
N156        N  0.37160369  0.13908685  0.13770572    -0.77700
C157        C  0.37679427  0.14552911  0.10661996     0.83100
N158        N  0.36664132  0.17342557  0.09460291    -0.79400
O159        O  0.52009907  0.99664959  0.08577287    -0.75000
O160        O  0.56098751  0.02352033  0.06301635    -0.53900
C161        C  0.54963800  0.00280904  0.08240975     0.78700
O162        O  0.41596491  0.01655845  0.95549957    -0.59600
O163        O  0.38070356  0.03989947  0.98916799    -0.52600
C164        C  0.38767679  0.02217282  0.96530939     0.70800
O165        O  0.52027271  0.00436164  0.95683671    -0.74100
O166        O  0.56045773  0.02291550  0.98773209    -0.54700
C167        C  0.54943958  0.00568475  0.96501044     0.76800
O168        O  0.41587067  0.99978694  0.07752318    -0.59300
O169        O  0.38093621  0.03625905  0.05903687    -0.52400
C170        C  0.38782803  0.01082495  0.07422054     0.73400
Zr171      Zr  0.46977491  0.01646651  0.06630437     2.54700
O172        O  0.46943033  0.95965722  0.05923471    -0.79900
O173        O  0.46341634  0.01441755  0.12324857    -0.93300
Zr174      Zr  0.46998770  0.02657254  0.97373365     2.64700
O175        O  0.46041756  0.97072191  0.96530368    -0.98200
O176        O  0.47329647  0.04079353  0.91838413    -0.80300
O177        O  0.50089147  0.01777173  0.01972311    -0.83600
O178        O  0.43923078  0.02378759  0.02027552    -2.18400
O179        O  0.42723451  0.12597050  0.09620362    -0.67000
O180        O  0.38728679  0.10959105  0.06390867    -0.51600
C181        C  0.39815543  0.12531751  0.08774415     0.71700
O182        O  0.53330850  0.13428823  0.97329028    -0.59900
O183        O  0.56790737  0.09754144  0.99198499    -0.51900
C184        C  0.56133602  0.12307082  0.97671604     0.73500
O185        O  0.42797102  0.13599728  0.96434929    -0.71300
O186        O  0.38735839  0.11046617  0.98917155    -0.50000
C187        C  0.39843310  0.13046582  0.96903870     0.74900
O188        O  0.53190300  0.11936769  0.09378236    -0.66700
O189        O  0.56736040  0.09518138  0.06091998    -0.53900
C190        C  0.56020667  0.11361338  0.08420335     0.73300
Zr191      Zr  0.47806519  0.10840670  0.07600245     2.77500
O192        O  0.48271028  0.16546068  0.07466695    -0.97400
O193        O  0.47822389  0.10522973  0.13316763    -0.78200
Zr194      Zr  0.47895308  0.11775309  0.98407005     2.70100
O195        O  0.47844705  0.17409779  0.99412538    -0.79500
O196        O  0.48459797  0.12199914  0.92712243    -0.98600
Zr197      Zr  0.53678723  0.06102786  0.02523243     2.21500
Zr198      Zr  0.41172531  0.07265546  0.02574077     2.11100
O199        O  0.44716457  0.11639668  0.03018557    -2.47300
O200        O  0.50960667  0.11006396  0.02995919    -0.79300
O201        O  0.44279250  0.06509571  0.07205922    -0.71500
O202        O  0.50593937  0.06906384  0.97868784    -2.32400
O203        O  0.50476931  0.05969604  0.07180740    -2.28600
O204        O  0.44320820  0.07503997  0.97898290    -0.73200
H205        H  0.42458909  0.00647796  0.01817950     0.78800
H206        H  0.51955448  0.06959935  0.96038796     0.79900
H207        H  0.43550979  0.13579216  0.03187136     0.82100
H208        H  0.51754467  0.05732702  0.09050369     0.79700
H209        H  0.48081342  0.02151654  0.90762117     0.42700
H210        H  0.50242763  0.10800472  0.92152796     0.41700
H211        H  0.49452750  0.17729501  0.01068162     0.41400
H212        H  0.46112216  0.17323703  0.07045640     0.39300
H213        H  0.47644567  0.08250005  0.13768247     0.42400
H214        H  0.48394062  0.02144067  0.13185415     0.37200
H215        H  0.48732296  0.95530995  0.04482385     0.43300
H216        H  0.46937418  0.96614028  0.94423325     0.39700
H217        H  0.48684418  0.17159939  0.09676670     0.44700
H218        H  0.46244102  0.99170000  0.12812255     0.43400
H219        H  0.47471101  0.96002002  0.98019022     0.43500
H220        H  0.46579109  0.11121954  0.91847884     0.43900
C221        C  0.10060145  0.97627207  0.65236303     0.80500
N222        N  0.09274442  0.94627761  0.65891310    -0.77800
C223        C  0.06558628  0.93346764  0.64818154     0.83000
N224        N  0.04550557  0.95158552  0.63087982    -0.77700
C225        C  0.05269976  0.98222325  0.62454274     0.83100
N226        N  0.08059450  0.99441016  0.63508241    -0.79400
C227        C  0.84381930  0.97666941  0.65208831     0.80500
N228        N  0.86162359  0.99528099  0.63267515    -0.77800
C229        C  0.89398580  0.99527526  0.63462869     0.83000
N230        N  0.90830382  0.97634322  0.65608648    -0.77700
C231        C  0.89058874  0.95758772  0.67517729     0.83100
N232        N  0.85884050  0.95804781  0.67287607    -0.79400
C233        C  0.90037390  0.18673202  0.67211292     0.80500
N234        N  0.91567449  0.17194330  0.64787673    -0.77800
C235        C  0.91479691  0.13988738  0.64543861     0.83000
N236        N  0.89788553  0.12302722  0.66677736    -0.77700
C237        C  0.88193992  0.13777542  0.69041334     0.83100
N238        N  0.88337203  0.16943463  0.69271484    -0.79400
C239        C  0.05703172  0.18797963  0.66033185     0.80500
N240        N  0.03974858  0.16816369  0.64177853    -0.77800
C241        C  0.05149901  0.13934412  0.63355366     0.83000
N242        N  0.08131802  0.13144416  0.64270498    -0.77700
C243        C  0.09849443  0.15146296  0.66114769     0.83100
N244        N  0.08601857  0.17930159  0.67001616    -0.79400
C245        C  0.88487241  0.19880488  0.40966149     0.80500
N246        N  0.90397796  0.18002769  0.42735292    -0.77800
C247        C  0.89429247  0.15048883  0.43568368     0.83000
N248        N  0.86482852  0.14046939  0.42701067    -0.77700
C249        C  0.84569978  0.15951388  0.40956713     0.83100
N250        N  0.85614461  0.18819853  0.40096903    -0.79400
C251        C  0.85043742  0.98484795  0.39462349     0.80500
N252        N  0.86708157  0.00397440  0.41429869    -0.77800
C253        C  0.89538336  0.99445021  0.42596203     0.83000
N254        N  0.90620550  0.96494871  0.41880777    -0.77700
C255        C  0.88942578  0.94593108  0.39893317     0.83100
N256        N  0.86184810  0.95622830  0.38688655    -0.79400
C257        C  0.06808311  0.99336290  0.37024742     0.80500
N258        N  0.05231035  0.00916202  0.39341939    -0.77800
C259        C  0.03415465  0.99306848  0.41452809     0.83000
N260        N  0.03213274  0.96103344  0.41223569    -0.77700
C261        C  0.04737795  0.94543608  0.38848176     0.83100
N262        N  0.06506031  0.96189740  0.36787094    -0.79400
C263        C  0.05790448  0.18078025  0.39241226     0.80500
N264        N  0.08945593  0.17700029  0.39212377    -0.77800
C265        C  0.10376574  0.15373100  0.40821563     0.83000
N266        N  0.08548552  0.13373068  0.42552091    -0.77700
C267        C  0.05329995  0.13685653  0.42593889     0.83100
N268        N  0.03958836  0.16042213  0.40914837    -0.79400
O269        O  0.90333943  0.01141202  0.58256117    -0.75000
O270        O  0.93889287  0.02730510  0.61978493    -0.53900
C271        C  0.91336554  0.01273797  0.61106445     0.78700
O272        O  0.02383032  0.99890388  0.46906294    -0.59600
O273        O  0.00252896  0.03486575  0.43525199    -0.52600
C274        C  0.01898968  0.00999905  0.44125097     0.70800
O275        O  0.03400284  0.99415181  0.57389434    -0.74100
O276        O  0.01464477  0.02308175  0.61522496    -0.54700
C277        C  0.03218042  0.00096291  0.60341045     0.76800
O278        O  0.90460735  0.00929346  0.47844472    -0.59300
O279        O  0.93277360  0.03462914  0.44006875    -0.52400
C280        C  0.91197358  0.01429164  0.44947446     0.73400
Zr281      Zr  0.92116875  0.02756304  0.53046907     2.54700
O282        O  0.90706679  0.97211741  0.53080045    -0.79900
O283        O  0.86652892  0.04534790  0.53122145    -0.93300
Zr284      Zr  0.01371904  0.01439893  0.52406642     2.64700
O285        O  0.00505445  0.95779359  0.52281783    -0.98200
O286        O  0.07080118  0.01148177  0.51804327    -0.80300
O287        O  0.96903711  0.01787840  0.55816526    -0.83600
O288        O  0.96582470  0.02258361  0.49691362    -2.18400
O289        O  0.91192484  0.13709567  0.48646710    -0.67000
O290        O  0.93257123  0.10943524  0.44491487    -0.51600
C291        C  0.91426941  0.13092249  0.45685394     0.71700
O292        O  0.04051867  0.12560308  0.58125217    -0.59900
O293        O  0.01499423  0.09790721  0.61976423    -0.51900
C294        C  0.03450351  0.11946083  0.61025697     0.73500
O295        O  0.04495508  0.11887855  0.47709314    -0.71300
O296        O  0.00817400  0.10521871  0.44017126    -0.50000
C297        C  0.03424341  0.11868782  0.44885817     0.74900
O298        O  0.92501201  0.13434561  0.59098008    -0.66700
O299        O  0.94624691  0.09830524  0.62475415    -0.53900
C300        C  0.93004732  0.12331162  0.61874362     0.73300
Zr301      Zr  0.93473048  0.11889335  0.53602506     2.77500
O302        O  0.95188059  0.17358346  0.53586857    -0.97400
O303        O  0.87902872  0.13107556  0.54308061    -0.78200
Zr304      Zr  0.02623151  0.10555786  0.52944031     2.70100
O305        O  0.03791217  0.16142143  0.52542477    -0.79500
O306        O  0.08188090  0.09199327  0.53381452    -0.98600
Zr307      Zr  0.97764353  0.06194711  0.59244404     2.21500
Zr308      Zr  0.96990906  0.07049279  0.46753202     2.11100
O309        O  0.97863349  0.11489767  0.50143134    -2.47300
O310        O  0.98223430  0.10999748  0.56366896    -0.79300
O311        O  0.92530781  0.07523079  0.50202587    -0.71500
O312        O  0.02245032  0.05804648  0.55799349    -2.32400
O313        O  0.92953037  0.07106942  0.56429606    -2.28600
O314        O  0.01816288  0.06201410  0.49549260    -0.73200
H315        H  0.96328416  0.00466988  0.48312396     0.78800
H316        H  0.04179952  0.05540298  0.56987658     0.79900
H317        H  0.98039239  0.13382226  0.48933165     0.82100
H318        H  0.91175176  0.07280025  0.57878172     0.79700
H319        H  0.07598484  0.02771271  0.50221576     0.42700
H320        H  0.08829150  0.08571738  0.51227790     0.41700
H321        H  0.01744910  0.17133245  0.52032135     0.41400
H322        H  0.94469205  0.18208524  0.51546529     0.39300
H323        H  0.86951861  0.11126348  0.55073755     0.42400
H324        H  0.85390876  0.02579259  0.52998574     0.37200
H325        H  0.92670879  0.96123829  0.53701432     0.43300
H326        H  0.99233507  0.95339748  0.54188854     0.39700
H327        H  0.93833685  0.18412338  0.55172354     0.44700
H328        H  0.86335459  0.05560053  0.51060727     0.43400
H329        H  0.99028786  0.95429755  0.50514080     0.43500
H330        H  0.09264027  0.11236033  0.53739548     0.43900
C331        C  0.93377098  0.38510612  0.25352343    -0.10500
C332        C  0.95759241  0.38363076  0.23096751    -0.04400
C333        C  0.98288613  0.36309659  0.23287311    -0.10500
C334        C  0.98563370  0.34319562  0.25916777     0.10400
C335        C  0.96223447  0.34460833  0.28325454    -0.02300
C336        C  0.93568559  0.36509773  0.28022249     0.10200
C337        C  0.91221168  0.36463749  0.30367816    -0.12300
C338        C  0.91459228  0.34440019  0.32958026    -0.12300
C339        C  0.94100997  0.32477019  0.33336349     0.10200
C340        C  0.96513851  0.32497302  0.31004249    -0.02300
C341        C  0.01061007  0.32164878  0.26172045    -0.12500
C342        C  0.01340011  0.30241031  0.28804324    -0.12500
C343        C  0.99123187  0.30405217  0.31255768     0.10400
C344        C  0.99403445  0.28509958  0.33956270    -0.10500
C345        C  0.97212594  0.28802858  0.36372875    -0.04400
C346        C  0.94400183  0.30450081  0.35967293    -0.10500
H347        H  0.89183198  0.37986945  0.30199720     0.07700
H348        H  0.89599789  0.34465206  0.34713191     0.07700
H349        H  0.02822044  0.31958583  0.24331253     0.07900
H350        H  0.03320294  0.28638930  0.28924057     0.07900
H351        H  0.95605642  0.39870336  0.21045851     0.04300
H352        H  0.97440099  0.27223162  0.38361745     0.04300
C353        C  0.28725731  0.10501839  0.24586029    -0.10500
C354        C  0.28404384  0.08425719  0.22064510    -0.04400
C355        C  0.25892981  0.06348674  0.21805413    -0.10500
C356        C  0.23557318  0.06295298  0.24175964     0.10400
C357        C  0.23844082  0.08360167  0.26803916    -0.02300
C358        C  0.26445917  0.10470327  0.27024001     0.10200
C359        C  0.26690654  0.12461489  0.29656622    -0.12300
C360        C  0.24393672  0.12425708  0.32023603    -0.12300
C361        C  0.21767142  0.10418583  0.31815487     0.10200
C362        C  0.21502798  0.08340984  0.29191130    -0.02300
C363        C  0.20945905  0.04269910  0.23975866    -0.12500
C364        C  0.18655260  0.04234411  0.26334630    -0.12500
C365        C  0.18885852  0.06254727  0.28941075     0.10400
C366        C  0.16539504  0.06305611  0.31293733    -0.10500
C367        C  0.16810936  0.08378131  0.33799505    -0.04400
C368        C  0.19371676  0.10407619  0.34145039    -0.10500
H369        H  0.28671930  0.14052109  0.29900797     0.07700
H370        H  0.24678508  0.13988785  0.34019488     0.07700
H371        H  0.20651083  0.02709215  0.21979567     0.07900
H372        H  0.16672760  0.02646012  0.26084149     0.07900
H373        H  0.30155180  0.08458632  0.20192324     0.04300
H374        H  0.14938468  0.08402397  0.35551683     0.04300
C375        C  0.21470161  0.39999904  0.05703454    -0.10500
C376        C  0.20337956  0.41209984  0.02878340    -0.04400
C377        C  0.21089680  0.39873201  0.99984834    -0.10500
C378        C  0.23417582  0.37503706  0.99825106     0.10400
C379        C  0.24788583  0.36376757  0.02657180    -0.02300
C380        C  0.23741393  0.37557325  0.05618879     0.10200
C381        C  0.24945076  0.36235220  0.08394622    -0.12300
C382        C  0.27167120  0.33808152  0.08275170    -0.12300
C383        C  0.28267699  0.32642600  0.05376379     0.10200
C384        C  0.27071461  0.33939971  0.02532384    -0.02300
C385        C  0.24404657  0.36241308  0.96928548    -0.12500
C386        C  0.26738364  0.33927066  0.96796075    -0.12500
C387        C  0.28071151  0.32723496  0.99562988     0.10400
C388        C  0.30346423  0.30294008  0.99476359    -0.10500
C389        C  0.31530177  0.29130289  0.02284401    -0.04400
C390        C  0.30524204  0.30198705  0.05207371    -0.10500
H391        H  0.24184674  0.37092444  0.10676985     0.07700
H392        H  0.28044669  0.32864732  0.10467150     0.07700
H393        H  0.23414598  0.37086800  0.94743828     0.07900
H394        H  0.27475977  0.33058278  0.94511220     0.07900
H395        H  0.18437850  0.42922543  0.02951643     0.04300
H396        H  0.33128852  0.27134444  0.02196502     0.04300
C397        C  0.64394935  0.04857502  0.25993609    -0.10500
C398        C  0.63083544  0.07750583  0.25254162    -0.04400
C399        C  0.64282611  0.10566536  0.26420571    -0.10500
C400        C  0.66618994  0.10484614  0.28802512     0.10400
C401        C  0.67890865  0.07535651  0.29729893    -0.02300
C402        C  0.66852767  0.04712987  0.28237063     0.10200
C403        C  0.68291296  0.01851720  0.29025357    -0.12300
C404        C  0.70696252  0.01741400  0.31263559    -0.12300
C405        C  0.71732665  0.04487053  0.32789105     0.10200
C406        C  0.70319781  0.07423239  0.32027183    -0.02300
C407        C  0.67743868  0.13248025  0.30236714    -0.12500
C408        C  0.70070337  0.13131357  0.32570302    -0.12500
C409        C  0.71414323  0.10254807  0.33475960     0.10400
C410        C  0.73856886  0.10089112  0.35757052    -0.10500
C411        C  0.75119295  0.07173810  0.36499233    -0.04400
C412        C  0.74171716  0.04407445  0.35045561    -0.10500
H413        H  0.67547555  0.99675809  0.27924315     0.07700
H414        H  0.71735035  0.99485066  0.31810078     0.07700
H415        H  0.66791101  0.15512933  0.29580708     0.07900
H416        H  0.70837423  0.15311246  0.33647204     0.07900
H417        H  0.61361853  0.07832572  0.23365739     0.04300
H418        H  0.77108657  0.07075224  0.38105310     0.04300
C419        C  0.99833475  0.73099108  0.27075974    -0.10500
C420        C  0.96913281  0.72224340  0.25893782    -0.04400
C421        C  0.94130643  0.73721264  0.26764763    -0.10500
C422        C  0.94186128  0.76012886  0.29185668     0.10400
C423        C  0.97123186  0.76813904  0.30595532    -0.02300
C424        C  0.99978040  0.75413837  0.29480090     0.10200
C425        C  0.02868209  0.76394850  0.30760424    -0.12300
C426        C  0.02972168  0.78730512  0.33080515    -0.12300
C427        C  0.00187538  0.80127520  0.34221445     0.10200
C428        C  0.97225198  0.79140924  0.33000241    -0.02300
C429        C  0.91423167  0.77542303  0.30200772    -0.12500
C430        C  0.91521814  0.79813704  0.32590364    -0.12500
C431        C  0.94389120  0.80636090  0.34028654     0.10400
C432        C  0.94535117  0.82933730  0.36455465    -0.10500
C433        C  0.97449077  0.83676667  0.37756293    -0.04400
C434        C  0.00274958  0.82557920  0.36500465    -0.10500
H435        H  0.05066260  0.75364888  0.29958963     0.07700
H436        H  0.05247912  0.79439283  0.33996462     0.07700
H437        H  0.89164200  0.76966848  0.29160849     0.07900
H438        H  0.89334923  0.80913756  0.33324654     0.07900
H439        H  0.96847116  0.70573655  0.23935368     0.04300
H440        H  0.97543199  0.85601803  0.39439310     0.04300
C441        C  0.31271218  0.03424615  0.78266898    -0.10500
C442        C  0.32661044  0.06233562  0.79256213    -0.04400
C443        C  0.31274756  0.09139509  0.78677399    -0.10500
C444        C  0.28704659  0.09313259  0.76562194     0.10400
C445        C  0.27446343  0.06496742  0.75255683    -0.02300
C446        C  0.28698077  0.03536843  0.76153232     0.10200
C447        C  0.27284471  0.00768297  0.75013224    -0.12300
C448        C  0.24659560  0.00889610  0.73037361    -0.12300
C449        C  0.23369661  0.03784535  0.72138794     0.10200
C450        C  0.24783393  0.06626087  0.73240074    -0.02300
C451        C  0.27353260  0.12209179  0.75741157    -0.12500
C452        C  0.24820490  0.12350899  0.73644326    -0.12500
C453        C  0.23473711  0.09592453  0.72408660     0.10400
C454        C  0.20819950  0.09672453  0.70394303    -0.10500
C455        C  0.19481280  0.06860220  0.69379767    -0.04400
C456        C  0.20671541  0.03950443  0.70200226    -0.10500
H457        H  0.28213213  0.98488240  0.75651247     0.07700
H458        H  0.23635897  0.98702459  0.72219235     0.07700
H459        H  0.28293087  0.14386953  0.76677451     0.07900
H460        H  0.23890915  0.14635113  0.73027553     0.07900
H461        H  0.34497187  0.06131815  0.81028460     0.04300
H462        H  0.17334809  0.06932341  0.67985560     0.04300
C463        C  0.00472509  0.40126343  0.78503718    -0.10500
C464        C  0.97698655  0.41681985  0.79286535    -0.04400
C465        C  0.94754460  0.40688783  0.78241804    -0.10500
C466        C  0.94591775  0.38184110  0.76018002     0.10400
C467        C  0.97445759  0.36762955  0.74930691    -0.02300
C468        C  0.00390811  0.37663973  0.76262490     0.10200
C469        C  0.03149404  0.36068934  0.75346801    -0.12300
C470        C  0.03047775  0.33671865  0.73089861    -0.12300
C471        C  0.00184873  0.32800519  0.71677523     0.10200
C472        C  0.97345610  0.34323051  0.72636487    -0.02300
C473        C  0.91695985  0.37038267  0.74878563    -0.12500
C474        C  0.91597995  0.34598398  0.72649997    -0.12500
C475        C  0.94392326  0.33260301  0.71454652     0.10400
C476        C  0.94336414  0.30849853  0.69133612    -0.10500
C477        C  0.97187595  0.29745679  0.67908860    -0.04400
C478        C  0.00060016  0.30439767  0.69326203    -0.10500
H479        H  0.05412500  0.36706570  0.76340799     0.07700
H480        H  0.05234673  0.32537118  0.72410244     0.07700
H481        H  0.89491596  0.38052308  0.75682392     0.07900
H482        H  0.89321895  0.33806955  0.71804963     0.07900
H483        H  0.97796976  0.43444466  0.81140582     0.04300
H484        H  0.97132829  0.27823926  0.66218181     0.04300
C485        C  0.16363621  0.78423899  0.02381877    -0.10500
C486        C  0.16404667  0.76059362  0.04623082    -0.04400
C487        C  0.18793193  0.75778705  0.06847379    -0.10500
C488        C  0.21307812  0.77966140  0.06853979     0.10400
C489        C  0.21329716  0.80410530  0.04578973    -0.02300
C490        C  0.18832825  0.80660572  0.02348382     0.10200
C491        C  0.18850991  0.83150079  0.00194388    -0.12300
C492        C  0.21313368  0.85320579  0.00158827    -0.12300
C493        C  0.23833472  0.85076302  0.02282113     0.10200
C494        C  0.23836500  0.82623265  0.04546209    -0.02300
C495        C  0.23782963  0.77781702  0.09041223    -0.12500
C496        C  0.26237070  0.79982795  0.09029011    -0.12500
C497        C  0.26304585  0.82424955  0.06816277     0.10400
C498        C  0.28766017  0.84689010  0.06774115    -0.10500
C499        C  0.28751174  0.86977922  0.04434735    -0.04400
C500        C  0.26337763  0.87254820  0.02258464    -0.10500
H501        H  0.16947646  0.83439244  0.98526876     0.07700
H502        H  0.21223947  0.87205781  0.98458893     0.07700
H503        H  0.23833173  0.75925159  0.10775044     0.07900
H504        H  0.28101104  0.79752746  0.10749850     0.07900
H505        H  0.14488135  0.74362045  0.04641355     0.04300
H506        H  0.30607777  0.88735850  0.04391545     0.04300
C507        C  0.75644699  0.38013842  0.98043844    -0.10500
C508        C  0.78100764  0.37656736  0.00193803    -0.04400
C509        C  0.78178204  0.35235811  0.02365705    -0.10500
C510        C  0.75769138  0.32946217  0.02324678     0.10400
C511        C  0.73246422  0.33228653  0.00132673    -0.02300
C512        C  0.73170504  0.35779579  0.97981688     0.10200
C513        C  0.70638754  0.36019430  0.95863855    -0.12300
C514        C  0.68244709  0.33754909  0.95803919    -0.12300
C515        C  0.68274081  0.31214121  0.97901693     0.10200
C516        C  0.70786238  0.30969127  0.00114760    -0.02300
C517        C  0.75833413  0.30381818  0.04385027    -0.12500
C518        C  0.73425679  0.28155852  0.04358621    -0.12500
C519        C  0.70864999  0.28440517  0.02289359     0.10400
C520        C  0.68375146  0.26249461  0.02305987    -0.10500
C521        C  0.65924976  0.26558370  0.00176352    -0.04400
C522        C  0.65853491  0.28909273  0.97897903    -0.10500
H523        H  0.70498371  0.37965213  0.94237113     0.07700
H524        H  0.66339458  0.34024138  0.94134387     0.07700
H525        H  0.77759079  0.30078692  0.06025047     0.07900
H526        H  0.73578564  0.26207501  0.05980899     0.07900
H527        H  0.80004212  0.39367923  0.00222529     0.04300
H528        H  0.64081259  0.24789580  0.00213580     0.04300
C529        C  0.01074987  0.74822628  0.80747242    -0.10500
C530        C  0.99009949  0.75208562  0.83282463    -0.04400
C531        C  0.96702622  0.77512765  0.83361723    -0.10500
C532        C  0.96422487  0.79607497  0.80826098     0.10400
C533        C  0.98598393  0.79390413  0.78276305    -0.02300
C534        C  0.00955476  0.76998605  0.78231519     0.10200
C535        C  0.03091543  0.76870017  0.75696642    -0.12300
C536        C  0.02984557  0.79107292  0.73290229    -0.12300
C537        C  0.00696761  0.81499253  0.73311283     0.10200
C538        C  0.98425327  0.81587128  0.75786198    -0.02300
C539        C  0.94073334  0.81932971  0.80801863    -0.12500
C540        C  0.93865742  0.84049317  0.78323122    -0.12500
C541        C  0.96029863  0.83929912  0.75821395     0.10400
C542        C  0.95907588  0.86120523  0.73356927    -0.10500
C543        C  0.98149065  0.86019428  0.70980343    -0.04400
C544        C  0.00602155  0.83840415  0.70946855    -0.10500
H545        H  0.04880094  0.75057152  0.75581748     0.07700
H546        H  0.04694627  0.78952884  0.71396306     0.07700
H547        H  0.92397056  0.82148407  0.82719080     0.07900
H548        H  0.92028924  0.85816547  0.78401061     0.07900
H549        H  0.99163572  0.73619710  0.85268292     0.04300
H550        H  0.98069422  0.87832871  0.69189994     0.04300
C551        C  0.66208941  0.02292426  0.81044423    -0.10500
C552        C  0.66734505  0.04138561  0.83713256    -0.04400
C553        C  0.69296493  0.06149248  0.83978053    -0.28500
C554        C  0.71535670  0.06265645  0.81522761     0.10400
C555        C  0.71104035  0.04356533  0.78796780    -0.02300
C556        C  0.68433206  0.02342902  0.78552207     0.10200
C557        C  0.68066461  0.00477067  0.75839025    -0.12300
C558        C  0.70286977  0.00581413  0.73393411    -0.12300
C559        C  0.72928384  0.02574036  0.73573640     0.10200
C560        C  0.73332971  0.04491484  0.76305303    -0.02300
C561        C  0.74199397  0.08210488  0.81744187    -0.12500
C562        C  0.76406447  0.08315583  0.79318426    -0.12500
C563        C  0.75989338  0.06521532  0.76570837     0.10400
C564        C  0.78178070  0.06665282  0.74079147    -0.10500
C565        C  0.77710627  0.04833585  0.71413117    -0.04400
C566        C  0.75182415  0.02751220  0.71101617    -0.10500
H567        H  0.66046132  0.98937689  0.75587391     0.07700
H568        H  0.69901611  0.99125252  0.71334686     0.07700
H569        H  0.74611587  0.09636247  0.83819479     0.07900
H570        H  0.78446088  0.09821533  0.79608646     0.07900
H571        H  0.65033337  0.04078111  0.85628674     0.04300
H572        H  0.79479276  0.04952023  0.69565403     0.04300
C573        C  0.73127394  0.73182734  0.00532141    -0.10500
C574        C  0.74025947  0.71742797  0.03321220    -0.04400
C575        C  0.73319492  0.73044370  0.06245411    -0.10500
C576        C  0.71103813  0.75535665  0.06433754     0.10400
C577        C  0.69828176  0.76786484  0.03608941    -0.02300
C578        C  0.70889067  0.75641455  0.00639523     0.10200
C579        C  0.69762099  0.77027403  0.97869469    -0.12300
C580        C  0.67645306  0.79534287  0.97996431    -0.12300
C581        C  0.66588582  0.80726524  0.00898686     0.10200
C582        C  0.67664516  0.79329554  0.03744211    -0.02300
C583        C  0.70121905  0.76791031  0.09339181    -0.12500
C584        C  0.67868576  0.79198149  0.09482028    -0.12500
C585        C  0.66641882  0.80525760  0.06718754     0.10400
C586        C  0.64459916  0.83054911  0.06793603    -0.10500
C587        C  0.63518281  0.84406128  0.03973702    -0.04400
C588        C  0.64495744  0.83299338  0.01059744    -0.10500
H589        H  0.70526634  0.76172897  0.95586865     0.07700
H590        H  0.66839259  0.80538540  0.95804694     0.07700
H591        H  0.71040829  0.75857223  0.11518673     0.07900
H592        H  0.67120286  0.80046201  0.11770662     0.07900
H593        H  0.75840843  0.69943896  0.03210250     0.04300
H594        H  0.62030188  0.86485623  0.04048838     0.04300
C595        C  0.04433314  0.20736465  0.37466246     0.00200
C596        C  0.01751280  0.20231165  0.35620480    -0.11700
C597        C  0.00348161  0.22717518  0.33996464     0.02400
C598        C  0.01570673  0.25800368  0.34288579     0.00100
C599        C  0.04377935  0.26266675  0.35949308    -0.11700
C600        C  0.05842302  0.23763830  0.37500012     0.02300
H601        H  0.00723291  0.17899278  0.35482617     0.15300
H602        H  0.05289582  0.28633028  0.36238520     0.15300
C603        C  0.08659388  0.24433067  0.39289744     0.36900
C604        C  0.97517297  0.22091079  0.32220062     0.36800
N605        N  0.10926267  0.24970544  0.40706530    -0.43400
N606        N  0.95262581  0.21553384  0.30786294    -0.43400
C607        C  0.13827815  0.14869822  0.40224913     0.00200
C608        C  0.15279174  0.16768571  0.37912597    -0.11700
C609        C  0.17823758  0.15642823  0.36142267     0.02400
C610        C  0.19061338  0.12656597  0.36816151     0.00100
C611        C  0.18296781  0.11311614  0.39753356    -0.11700
C612        C  0.15558628  0.12276836  0.41368404     0.02300
H613        H  0.14169385  0.18929893  0.37153478     0.15300
H614        H  0.19363554  0.09084202  0.40380244     0.15300
C615        C  0.14431274  0.10361692  0.43931343     0.36900
C616        C  0.18635508  0.17275036  0.33277840     0.36800
N617        N  0.13542617  0.08798363  0.45973170    -0.43400
N618        N  0.19251993  0.18587031  0.30976106    -0.43400
C619        C  0.13885760  0.04065545  0.31563533     0.00200
C620        C  0.14574643  0.01204310  0.33012402    -0.11700
C621        C  0.12283425  0.99640321  0.34781444     0.02400
C622        C  0.09192305  0.00884355  0.35019891     0.00100
C623        C  0.08422805  0.03598236  0.33333914    -0.11700
C624        C  0.10747366  0.05193872  0.31608438     0.02300
H625        H  0.17001339  0.00392584  0.33082836     0.15300
H626        H  0.06045722  0.04533631  0.33464120     0.15300
C627        C  0.09960317  0.08159335  0.30172019     0.36900
C628        C  0.13276098  0.96978819  0.36634826     0.36800
N629        N  0.09350932  0.10548337  0.29034592    -0.43400
N630        N  0.14071690  0.94870262  0.38148975    -0.43400
C631        C  0.02969835  0.84757205  0.36972265     0.00200
C632        C  0.03590739  0.85729080  0.40088302    -0.11700
C633        C  0.04216325  0.88898910  0.40787343     0.02400
C634        C  0.04437586  0.91099801  0.38326594     0.00100
C635        C  0.04409722  0.89988698  0.35202517    -0.11700
C636        C  0.03696333  0.86854764  0.34507999     0.02300
H637        H  0.03091354  0.84125090  0.42003951     0.15300
H638        H  0.04715356  0.91621781  0.33271859     0.15300
C639        C  0.03306393  0.85979628  0.31243655     0.36900
C640        C  0.04495561  0.89844335  0.44037627     0.36800
N641        N  0.03004714  0.85277453  0.28628115    -0.43400
N642        N  0.04719741  0.90603216  0.46645186    -0.43400
C643        C  0.81948936  0.99419602  0.38226946     0.00200
C644        C  0.81590993  0.99810654  0.34973952    -0.11700
C645        C  0.78762296  0.00970873  0.33738375     0.02400
C646        C  0.76219800  0.01682165  0.35775376     0.00100
C647        C  0.76459017  0.00861239  0.38973980    -0.11700
C648        C  0.79323410  0.99815969  0.40222351     0.02300
H649        H  0.83588018  0.99398849  0.33422312     0.15300
H650        H  0.74534179  0.01433580  0.40565312     0.15300
C651        C  0.79560240  0.99291817  0.43569159     0.36900
C652        C  0.78648261  0.01744506  0.30436930     0.36800
N653        N  0.79770187  0.98870719  0.46248957    -0.43400
N654        N  0.78559058  0.02359533  0.27788933    -0.43400
C655        C  0.90032960  0.91409626  0.38971234     0.00200
C656        C  0.90356155  0.89061758  0.41251874    -0.11700
C657        C  0.91319980  0.86014191  0.40397590     0.02400
C658        C  0.92035026  0.85288228  0.37213136     0.00100
C659        C  0.91444702  0.87573724  0.34918246    -0.11700
C660        C  0.90472963  0.90610736  0.35770067     0.02300
H661        H  0.89912418  0.89623610  0.43705119     0.15300
H662        H  0.92070135  0.87092698  0.32486093     0.15300
C663        C  0.90219724  0.92956635  0.33338926     0.36900
C664        C  0.91876057  0.83747577  0.42855168     0.36800
N665        N  0.90037599  0.94855771  0.31407328    -0.43400
N666        N  0.92349371  0.81935370  0.44820885    -0.43400
C667        C  0.89490838  0.23017889  0.39813903     0.00200
C668        C  0.90742367  0.25259875  0.41897848    -0.11700
C669        C  0.91805387  0.28187272  0.40783189     0.02400
C670        C  0.91684861  0.28868866  0.37523724     0.00100
C671        C  0.90028011  0.26807078  0.35550930    -0.11700
C672        C  0.89044250  0.23865360  0.36627826     0.02300
H673        H  0.90990045  0.24685674  0.44368150     0.15300
H674        H  0.89963537  0.27266009  0.33040848     0.15300
C675        C  0.87980947  0.21624597  0.34299117     0.36900
C676        C  0.93387368  0.30295569  0.42931846     0.36800
N677        N  0.87195229  0.19850075  0.32385478    -0.43400
N678        N  0.94669612  0.31983353  0.44646134    -0.43400
C679        C  0.75684645  0.12762620  0.37127828     0.00200
C680        C  0.76179617  0.12710665  0.40417374    -0.11700
C681        C  0.79071232  0.13666002  0.41726066     0.02400
C682        C  0.81432472  0.14937961  0.39770866     0.00100
C683        C  0.80743500  0.15423050  0.36573231    -0.11700
C684        C  0.77938746  0.14303507  0.35233059     0.02300
H685        H  0.74485466  0.11502527  0.41902619     0.15300
H686        H  0.82506670  0.16479390  0.35060064     0.15300
C687        C  0.77627221  0.14396167  0.31852755     0.36900
C688        C  0.79609153  0.13190555  0.45042311     0.36800
N689        N  0.77379823  0.14455380  0.29142718    -0.43400
N690        N  0.80051746  0.12788745  0.47696212    -0.43400
C691        C  0.04554898  0.21936338  0.66981824     0.00200
C692        C  0.04548815  0.24381683  0.64780576    -0.11700
C693        C  0.03604490  0.27422430  0.65663210     0.02400
C694        C  0.02533090  0.28021958  0.68758977     0.00100
C695        C  0.02811446  0.25635215  0.71015474    -0.11700
C696        C  0.03861907  0.22625032  0.70159421     0.02300
H697        H  0.05275943  0.23914618  0.62374639     0.15300
H698        H  0.01965506  0.26049841  0.73392934     0.15300
C699        C  0.04094634  0.20235655  0.72551356     0.36900
C700        C  0.03602865  0.29881231  0.63335673     0.36800
N701        N  0.04314094  0.18310544  0.74453499    -0.43400
N702        N  0.03629673  0.31872956  0.61490224    -0.43400
C703        C  0.19033447  0.12496552  0.69394867     0.00200
C704        C  0.18470013  0.12716972  0.66135126    -0.11700
C705        C  0.15473430  0.13509567  0.65008783     0.02400
C706        C  0.13090118  0.14406141  0.67145630     0.00100
C707        C  0.13860069  0.14782611  0.70341558    -0.11700
C708        C  0.16800834  0.13811090  0.71483626     0.02300
H709        H  0.20188974  0.11743182  0.64503595     0.15300
H710        H  0.12087670  0.15637469  0.71981530     0.15300
C711        C  0.17353915  0.13892517  0.74832067     0.36900
C712        C  0.14863840  0.13229296  0.61679149     0.36800
N713        N  0.17818873  0.13986988  0.77512794    -0.43400
N714        N  0.14376361  0.12980948  0.59011917    -0.43400
C715        C  0.90313990  0.22117492  0.67769059     0.00200
C716        C  0.90273823  0.24218852  0.65231304    -0.11700
C717        C  0.90925590  0.27428430  0.65700806     0.02400
C718        C  0.91709109  0.28557426  0.68740831     0.00100
C719        C  0.91269697  0.26549577  0.71309277    -0.11700
C720        C  0.90680616  0.23345685  0.70854221     0.02300
H721        H  0.89884440  0.23332704  0.62868089     0.15300
H722        H  0.91897653  0.27368683  0.73647561     0.15300
C723        C  0.90907913  0.21334096  0.73575492     0.36900
C724        C  0.91189636  0.29446538  0.62991479     0.36800
N725        N  0.91127070  0.19731250  0.75757169    -0.43400
N726        N  0.91403474  0.31058433  0.60814484    -0.43400
C727        C  0.85980501  0.12049802  0.71117866     0.00200
C728        C  0.83221093  0.13611512  0.72121740    -0.11700
C729        C  0.80708469  0.11953881  0.73458712     0.02400
C730        C  0.81010810  0.08707353  0.73991635     0.00100
C731        C  0.83928959  0.07240984  0.73403728    -0.11700
C732        C  0.86367585  0.08846685  0.71875665     0.02300
H733        H  0.82886078  0.16076560  0.71579343     0.15300
H734        H  0.84154345  0.04730561  0.73784691     0.15300
C735        C  0.89117223  0.07082273  0.70913964     0.36900
C736        C  0.77724882  0.13545917  0.73873540     0.36800
N737        N  0.91291813  0.05644602  0.70103781    -0.43400
N738        N  0.75327037  0.14810846  0.74189193    -0.43400
C739        C  0.90502448  0.93425762  0.69635401     0.00200
C740        C  0.89272933  0.90352035  0.69622192    -0.11700
C741        C  0.90766909  0.87942801  0.71271277     0.02400
C742        C  0.93509476  0.88606137  0.73003718     0.00100
C743        C  0.94529721  0.91736399  0.73306131    -0.11700
C744        C  0.93066853  0.94143067  0.71612606     0.02300
H745        H  0.87276507  0.89779556  0.68136537     0.15300
H746        H  0.96668535  0.92242994  0.74610399     0.15300
C747        C  0.94301985  0.97292808  0.71869262     0.36900
C748        C  0.89687992  0.84745915  0.70855665     0.36800
N749        N  0.95309789  0.99811273  0.72092254    -0.43400
N750        N  0.88864183  0.82171549  0.70531017    -0.43400
C751        C  0.75484953  0.00508837  0.68401620     0.00200
C752        C  0.76463724  0.97474954  0.69189911    -0.11700
C753        C  0.79110278  0.96153647  0.67702232     0.02400
C754        C  0.80859179  0.97969626  0.65488339     0.00100
C755        C  0.79315937  0.00543134  0.64119156    -0.11700
C756        C  0.76511326  0.01709917  0.65465575     0.02300
H757        H  0.75518906  0.96363443  0.71283662     0.15300
H758        H  0.80454186  0.01849635  0.62247898     0.15300
C759        C  0.75206018  0.04603063  0.64283486     0.36900
C760        C  0.80088029  0.93062430  0.68696805     0.36800
N761        N  0.74158419  0.06931191  0.63356363    -0.43400
N762        N  0.80814631  0.90572468  0.69504959    -0.43400
C763        C  0.13056282  0.98853963  0.66513895     0.00200
C764        C  0.13412830  0.99045772  0.69791875    -0.11700
C765        C  0.16170197  0.00290148  0.71121499     0.02400
C766        C  0.18669436  0.01281970  0.69159367     0.00100
C767        C  0.18428947  0.00770205  0.65892562    -0.11700
C768        C  0.15636522  0.99601406  0.64560235     0.02300
H769        H  0.11463846  0.98377654  0.71310547     0.15300
H770        H  0.20304899  0.01589924  0.64358057     0.15300
C771        C  0.15441396  0.99254638  0.61186465     0.36900
C772        C  0.16237533  0.00877970  0.74469783     0.36800
N773        N  0.15280646  0.98966962  0.58482776    -0.43400
N774        N  0.16289349  0.01377129  0.77147896    -0.43400
C775        C  0.05735941  0.90096398  0.65838032     0.00200
C776        C  0.07041920  0.88983467  0.68669885    -0.11700
C777        C  0.05823269  0.86319873  0.70160251     0.02400
C778        C  0.03249861  0.84712095  0.68813224     0.00100
C779        C  0.02449286  0.85402585  0.65669227    -0.11700
C780        C  0.03575853  0.88149716  0.64222355     0.02300
H781        H  0.08813228  0.90356476  0.69896351     0.15300
H782        H  0.00520338  0.84129931  0.64575745     0.15300
C783        C  0.02320699  0.89013354  0.61193179     0.36900
C784        C  0.06890318  0.85620495  0.73305395     0.36800
N785        N  0.01310814  0.89724543  0.58771447    -0.43400
N786        N  0.07732536  0.85056552  0.75828425    -0.43400
C787        C  0.31246056  0.12890574  0.24148564     0.00200
C788        C  0.34269690  0.11710396  0.23407604    -0.11700
C789        C  0.35882098  0.12776729  0.20720988     0.02400
C790        C  0.34586832  0.15252277  0.18936153     0.00100
C791        C  0.32006570  0.16924175  0.20221996    -0.11700
C792        C  0.30339495  0.15768530  0.22813158     0.02300
H793        H  0.35051673  0.09557475  0.24518070     0.15300
H794        H  0.31061677  0.18957559  0.19020731     0.15300
C795        C  0.27403578  0.17269143  0.23677951     0.36900
C796        C  0.38689009  0.11124027  0.19727841     0.36800
N797        N  0.25054336  0.18479170  0.24367460    -0.43400
N798        N  0.40930626  0.09785267  0.18927103    -0.43400
C799        C  0.31606686  0.28216710  0.07857932     0.00200
C800        C  0.29489871  0.25922613  0.08937981    -0.11700
C801        C  0.30594680  0.23045748  0.10087246     0.02400
C802        C  0.33867012  0.22427775  0.10147037     0.00100
C803        C  0.35989435  0.24820936  0.09355195    -0.11700
C804        C  0.34884791  0.27721866  0.08268109     0.02300
H805        H  0.26977345  0.26245313  0.08579238     0.15300
H806        H  0.38507673  0.24403784  0.09533151     0.15300
C807        C  0.37152794  0.30048792  0.07261511     0.36900
C808        C  0.28325180  0.20670520  0.10970211     0.36800
N809        N  0.38961979  0.31914641  0.06440841    -0.43400
N810        N  0.26514559  0.18759116  0.11674781    -0.43400
C811        C  0.29400406  0.00885586  0.14348026     0.00200
C812        C  0.28637055  0.99412752  0.17216311    -0.11700
C813        C  0.27064591  0.01034155  0.19606727     0.02400
C814        C  0.26093161  0.04150088  0.19100368     0.00100
C815        C  0.26436698  0.05457408  0.16075281    -0.11700
C816        C  0.28146454  0.03883039  0.13722653     0.02300
H817        H  0.29535686  0.97085231  0.17728377     0.15300
H818        H  0.25701254  0.07864992  0.15680077     0.15300
C819        C  0.28718046  0.05456345  0.10771608     0.36900
C820        C  0.26891145  0.99605983  0.22681459     0.36800
N821        N  0.29193569  0.06718137  0.08409510    -0.43400
N822        N  0.26773083  0.98466217  0.25146742    -0.43400
C823        C  0.33966553  0.90970405  0.11084823     0.00200
C824        C  0.31505724  0.89679146  0.12924327    -0.11700
C825        C  0.30020260  0.86885394  0.12013091     0.02400
C826        C  0.31121160  0.85277198  0.09322205     0.00100
C827        C  0.34223893  0.85971164  0.08296052    -0.11700
C828        C  0.35564208  0.88926815  0.08993246     0.02300
H829        H  0.30415535  0.91063551  0.14779574     0.15300
H830        H  0.35210234  0.84618145  0.06361318     0.15300
C831        C  0.38306995  0.89925392  0.07242402     0.36900
C832        C  0.27003205  0.86154266  0.13422903     0.36800
N833        N  0.40497659  0.90732502  0.05825645    -0.43400
N834        N  0.24577140  0.85610504  0.14556528    -0.43400
C835        C  0.32973298  0.99186150  0.86793075     0.00200
C836        C  0.35465006  0.99276031  0.84613149    -0.11700
C837        C  0.34884475  0.99991550  0.81443858     0.02400
C838        C  0.31792782  0.00771774  0.80471956     0.00100
C839        C  0.29277771  0.00173077  0.82529928    -0.11700
C840        C  0.29831260  0.99439268  0.85675594     0.02300
H841        H  0.37867967  0.98928426  0.85408581     0.15300
H842        H  0.26889556  0.00747926  0.81819043     0.15300
C843        C  0.27124084  0.99359722  0.87754582     0.36900
C844        C  0.37521679  0.00304176  0.79310563     0.36800
N845        N  0.24950438  0.99307276  0.89410339    -0.43400
N846        N  0.39636650  0.00550826  0.77599359    -0.43400
C847        C  0.29833886  0.94749649  0.96799405     0.00200
C848        C  0.29162464  0.91858020  0.95317754    -0.11700
C849        C  0.27663227  0.89431382  0.96945550     0.02400
C850        C  0.26666239  0.89933294  0.00067145     0.00100
C851        C  0.26987683  0.92947635  0.01410197    -0.11700
C852        C  0.28632369  0.95326579  0.99841434     0.02300
H853        H  0.30038333  0.91393359  0.92960258     0.15300
H854        H  0.26249528  0.93330860  0.03829217     0.15300
C855        C  0.29157402  0.98269586  0.01459711     0.36900
C856        C  0.27509555  0.86360872  0.95491026     0.36800
N857        N  0.29584638  0.00614623  0.02780536    -0.43400
N858        N  0.27403701  0.83901523  0.94323018    -0.43400
C859        C  0.33706287  0.22645257  0.94474547     0.00200
C860        C  0.30451597  0.23253543  0.94382084    -0.11700
C861        C  0.29232161  0.26096646  0.95522876     0.02400
C862        C  0.31304189  0.28429614  0.96670311     0.00100
C863        C  0.34578252  0.28010353  0.96231176    -0.11700
C864        C  0.35791842  0.25093944  0.95280232     0.02300
H865        H  0.28839790  0.21404900  0.93662457     0.15300
H866        H  0.36191471  0.29785627  0.97115392     0.15300
C867        C  0.39164397  0.24613883  0.95328595     0.36900
C868        C  0.25855179  0.26382211  0.95885723     0.36800
N869        N  0.41865217  0.24216263  0.95392098    -0.43400
N870        N  0.23148115  0.26605169  0.96179000    -0.43400
C871        C  0.33780827  0.13962094  0.87045226     0.00200
C872        C  0.36043069  0.13612359  0.84661975    -0.11700
C873        C  0.35194551  0.12446185  0.81693775     0.02400
C874        C  0.32026099  0.11587461  0.81078376     0.00100
C875        C  0.29733142  0.12157489  0.83410615    -0.11700
C876        C  0.30585937  0.13328070  0.86377334     0.02300
H877        H  0.38488391  0.14194288  0.85141532     0.15300
H878        H  0.27315475  0.11417797  0.83014471     0.15300
C879        C  0.28186397  0.13618637  0.88782775     0.36900
C880        C  0.37654930  0.11925900  0.79393445     0.36800
N881        N  0.26274676  0.13830376  0.90723267    -0.43400
N882        N  0.39648697  0.11502123  0.77573789    -0.43400
C883        C  0.68046107  0.23598984  0.04526380     0.00200
C884        C  0.67661906  0.20570081  0.03237353    -0.11700
C885        C  0.66046460  0.18228806  0.04890487     0.02400
C886        C  0.64882852  0.18882440  0.07932628     0.00100
C887        C  0.65596139  0.21798750  0.09345286    -0.11700
C888        C  0.67126376  0.24164212  0.07659507     0.02300
H889        H  0.68356414  0.20135653  0.00814272     0.15300
H890        H  0.64761479  0.22320275  0.11705613     0.15300
C891        C  0.67442889  0.27237990  0.09082661     0.36900
C892        C  0.65545473  0.15226590  0.03377487     0.36800
N893        N  0.67714853  0.29704047  0.10208836    -0.43400
N894        N  0.65147159  0.12823761  0.02155820    -0.43400
C895        C  0.61857056  0.14715261  0.18065020     0.00200
C896        C  0.65062729  0.14547995  0.18893233    -0.11700
C897        C  0.65990275  0.13861253  0.21962475     0.02400
C898        C  0.63683041  0.13260974  0.24284059     0.00100
C899        C  0.60503522  0.13974319  0.23582040    -0.11700
C900        C  0.59573954  0.14661756  0.20480157     0.02300
H901        H  0.66866285  0.14714522  0.17083151     0.15300
H902        H  0.58703752  0.13571560  0.25355338     0.15300
C903        C  0.56292177  0.15272251  0.19826670     0.36900
C904        C  0.69299100  0.13273521  0.22521042     0.36800
N905        N  0.53668820  0.15809349  0.19303584    -0.43400
N906        N  0.71950892  0.12794811  0.22949782    -0.43400
C907        C  0.61095593  0.22357704  0.93889573     0.00200
C908        C  0.63583184  0.23651810  0.92077574    -0.11700
C909        C  0.64746190  0.26668793  0.92713212     0.02400
C910        C  0.63539387  0.28330754  0.95313465     0.00100
C911        C  0.60452910  0.27531942  0.96296235    -0.11700
C912        C  0.59285829  0.24472853  0.95733486     0.02300
H913        H  0.64847874  0.22216974  0.90384691     0.15300
H914        H  0.59327249  0.28954704  0.98100094     0.15300
C915        C  0.56432503  0.23513848  0.97317190     0.36900
C916        C  0.67558897  0.27723173  0.91104912     0.36800
N917        N  0.54132730  0.22774047  0.98590776    -0.43400
N918        N  0.69801056  0.28584432  0.89804761    -0.43400
C919        C  0.69051332  0.08498050  0.86551043     0.00200
C920        C  0.68068090  0.11493648  0.85657585    -0.11700
C921        C  0.66283877  0.13360104  0.87697194     0.02400
C922        C  0.65552489  0.12273927  0.90772094     0.00100
C923        C  0.66873755  0.09430158  0.91790402    -0.11700
C924        C  0.68623350  0.07543087  0.89705494     0.02300
H925        H  0.68337356  0.12207509  0.83221351     0.15300
H926        H  0.66403610  0.08607292  0.94157844     0.15300
C927        C  0.69704262  0.04502400  0.90742620     0.36900
C928        C  0.64899585  0.16160722  0.86377456     0.36800
N929        N  0.70569144  0.02059131  0.91556675    -0.43400
N930        N  0.63785112  0.18373137  0.85263485    -0.43400
C931        C  0.61267498  0.90868369  0.95683233     0.00200
C932        C  0.59104278  0.88617276  0.96727502    -0.11700
C933        C  0.60151633  0.85777244  0.97989067     0.02400
C934        C  0.63420234  0.85227861  0.98370709     0.00100
C935        C  0.65579123  0.87360691  0.97065714    -0.11700
C936        C  0.64523430  0.90149391  0.95675411     0.02300
H937        H  0.56593618  0.89091680  0.96582523     0.15300
H938        H  0.68090104  0.86977449  0.97370866     0.15300
C939        C  0.66832077  0.92316952  0.94431620     0.36900
C940        C  0.57836811  0.83564976  0.99136612     0.36800
N941        N  0.68685918  0.94038688  0.93415911    -0.43400
N942        N  0.55979474  0.81792595  0.00051935    -0.43400
C943        C  0.60267207  0.97536439  0.86470803     0.00200
C944        C  0.59026909  0.00184456  0.84946706    -0.11700
C945        C  0.60548361  0.01430101  0.82294026     0.02400
C946        C  0.63465548  0.00140826  0.81306301     0.00100
C947        C  0.64215871  0.97106056  0.82283788    -0.11700
C948        C  0.62664307  0.95787745  0.84873955     0.02300
H949        H  0.57056943  0.01450030  0.85978555     0.15300
H950        H  0.66359874  0.96009798  0.81408796     0.15300
C951        C  0.63842437  0.92803300  0.85972220     0.36900
C952        C  0.59484744  0.04406126  0.81073357     0.36800
N953        N  0.64811680  0.90414490  0.86830855    -0.43400
N954        N  0.58629478  0.06796411  0.80108247    -0.43400
C955        C  0.61014118  0.99718077  0.18192028     0.00200
C956        C  0.58983239  0.00303771  0.20734333    -0.11700
C957        C  0.60157447  0.01535018  0.23565127     0.02400
C958        C  0.63403196  0.02265195  0.23856307     0.00100
C959        C  0.65459345  0.01445388  0.21389445    -0.11700
C960        C  0.64291830  0.00151996  0.18584195     0.02300
H961        H  0.56478907  0.99835000  0.20495086     0.15300
H962        H  0.67939969  0.02054267  0.21552978     0.15300
C963        C  0.66472898  0.99432840  0.16063221     0.36900
C964        C  0.57967645  0.02294194  0.26066453     0.36800
N965        N  0.68189316  0.98838392  0.14022655    -0.43400
N966        N  0.56238587  0.02932729  0.28082907    -0.43400
C967        C  0.60587468  0.90546844  0.11486630     0.00200
C968        C  0.63802203  0.89904304  0.11990473    -0.11700
C969        C  0.65131602  0.87038910  0.11046928     0.02400
C970        C  0.63218815  0.84734419  0.09617327     0.00100
C971        C  0.59909854  0.85155514  0.09712977    -0.11700
C972        C  0.58597283  0.88087258  0.10496391     0.02300
H973        H  0.65335882  0.91738638  0.12893575     0.15300
H974        H  0.58403639  0.83384127  0.08651122     0.15300
C975        C  0.55247042  0.88556247  0.10109081     0.36900
C976        C  0.68512275  0.86682058  0.11216945     0.36800
N977        N  0.52562044  0.88925972  0.09783486    -0.43400
N978        N  0.71222775  0.86399857  0.11380469    -0.43400
C979        C  0.03478667  0.39823434  0.15658705     0.00200
C980        C  0.04899319  0.39761613  0.18645337    -0.11700
C981        C  0.03455963  0.38209981  0.21162395     0.02400
C982        C  0.00595157  0.36596414  0.20675038     0.00100
C983        C  0.99397604  0.36336496  0.17593287    -0.11700
C984        C  0.00756764  0.38015271  0.15112163     0.02300
H985        H  0.07049655  0.41084512  0.19057469     0.15300
H986        H  0.97178646  0.35121197  0.17209258     0.15300
C987        C  0.99263712  0.37929892  0.12064262     0.36900
C988        C  0.04786983  0.38558834  0.24269227     0.36800
N989        N  0.98064225  0.37884992  0.09622034    -0.43400
N990        N  0.05846597  0.38819462  0.26763397    -0.43400
C991        C  0.19403585  0.40707711  0.08444985     0.00200
C992        C  0.17275543  0.38315349  0.09223454    -0.11700
C993        C  0.14148616  0.39024259  0.09991818     0.02400
C994        C  0.13140103  0.42200170  0.10129490     0.00100
C995        C  0.15398220  0.44592811  0.09848493    -0.11700
C996        C  0.18541332  0.43859742  0.09087199     0.02300
H997        H  0.17907018  0.35887539  0.08747497     0.15300
H998        H  0.14685782  0.47027779  0.10102772     0.15300
C999        C  0.20752651  0.46385795  0.08559265     0.36900
C1000       C  0.11958690  0.36427919  0.10224590     0.36800
N1001       N  0.22529696  0.48408333  0.08137469    -0.43400
N1002       N  0.10215620  0.34338919  0.10386642    -0.43400
C1003       C  0.18763519  0.40553227  0.97472148     0.00200
C1004       C  0.16264467  0.38411023  0.97142778    -0.11700
C1005       C  0.13312520  0.39391941  0.96042394     0.02400
C1006       C  0.12828406  0.42563845  0.95223480     0.00100
C1007       C  0.15392772  0.44650700  0.95302161    -0.11700
C1008       C  0.18350139  0.43662993  0.96404586     0.02300
H1009       H  0.16525845  0.36043576  0.98044011     0.15300
H1010       H  0.15067567  0.47065191  0.94564739     0.15300
C1011       C  0.20890012  0.45913820  0.96626408     0.36900
C1012       C  0.10745065  0.37162507  0.96041599     0.36800
N1013       N  0.22944977  0.47697764  0.96805054    -0.43400
N1014       N  0.08695883  0.35365232  0.96089797    -0.43400
C1015       C  0.03081470  0.40731811  0.80750966     0.00200
C1016       C  0.03465092  0.38499332  0.83137823    -0.11700
C1017       C  0.04441797  0.39407659  0.86153139     0.02400
C1018       C  0.05097916  0.42596412  0.86805711     0.00100
C1019       C  0.05039183  0.44773415  0.84341283    -0.11700
C1020       C  0.04074469  0.43859514  0.81318910     0.02300
H1021       H  0.02637988  0.36114022  0.82757448     0.15300
H1022       H  0.05643876  0.47208696  0.84803798     0.15300
C1023       C  0.03735178  0.46237322  0.78928318     0.36900
C1024       C  0.04436979  0.37072189  0.88602998     0.36800
N1025       N  0.03430607  0.48135516  0.77011173    -0.43400
N1026       N  0.04383055  0.35168424  0.90537155    -0.43400
C1027       C  0.81188603  0.44222064  0.93557972     0.00200
C1028       C  0.79952167  0.41718957  0.91751635    -0.11700
C1029       C  0.77416779  0.39931629  0.92852807     0.02400
C1030       C  0.76087517  0.40644773  0.95803112     0.00100
C1031       C  0.76767197  0.43598147  0.97159685    -0.11700
C1032       C  0.79397799  0.45329590  0.96141435     0.02300
H1033       H  0.81157347  0.40926280  0.89639221     0.15300
H1034       H  0.75651958  0.44232184  0.99374524     0.15300
C1035       C  0.80316220  0.48073924  0.97924027     0.36900
C1036       C  0.76570746  0.37103648  0.91165396     0.36800
N1037       N  0.81035487  0.50269504  0.99370122    -0.43400
N1038       N  0.75879826  0.34848570  0.89799999    -0.43400
C1039       C  0.92107692  0.41875974  0.80245203     0.00200
C1040       C  0.90875086  0.39755013  0.82450799    -0.11700
C1041       C  0.89773156  0.40804561  0.85385964     0.02400
C1042       C  0.89869719  0.44034255  0.86160334     0.00100
C1043       C  0.90773270  0.46192028  0.83849375    -0.11700
C1044       C  0.91851603  0.45147781  0.80895533     0.02300
H1045       H  0.91104472  0.37249394  0.82030113     0.15300
H1046       H  0.90716467  0.48686740  0.84380650     0.15300
C1047       C  0.93076870  0.47457066  0.78726512     0.36900
C1048       C  0.88784382  0.38499394  0.87671876     0.36800
N1049       N  0.94096104  0.49320181  0.77025819    -0.43400
N1050       N  0.87994878  0.36673089  0.89524956    -0.43400
C1051       C  0.90683573  0.40562213  0.24390108     0.00200
C1052       C  0.91492347  0.43673886  0.23539938    -0.11700
C1053       C  0.90691816  0.44860432  0.20548902     0.02400
C1054       C  0.88806758  0.43027017  0.18499783     0.00100
C1055       C  0.87294699  0.40361543  0.19794312    -0.11700
C1056       C  0.88229632  0.39114763  0.22694765     0.02300
H1057       H  0.93280870  0.44893763  0.24898047     0.15300
H1058       H  0.85630824  0.39017785  0.18399334     0.15300
C1059       C  0.87073393  0.36046412  0.23562526     0.36900
C1060       C  0.92055350  0.47809960  0.19573523     0.36800
N1061       N  0.86141320  0.33580923  0.24233101    -0.43400
N1062       N  0.93152582  0.50177393  0.18801227    -0.43400
C1063       C  0.85069768  0.38977392  0.08420962     0.00200
C1064       C  0.81995314  0.38474780  0.09571559    -0.11700
C1065       C  0.79779484  0.36787556  0.07808151     0.02400
C1066       C  0.80629873  0.35569203  0.04836222     0.00100
C1067       C  0.83810629  0.35731995  0.03876221    -0.11700
C1068       C  0.86030872  0.37420301  0.05647654     0.02300
H1069       H  0.81252466  0.39582873  0.11754267     0.15300
H1070       H  0.84490096  0.34779540  0.01601909     0.15300
C1071       C  0.89264318  0.37548294  0.04573289     0.36900
C1072       C  0.76567657  0.36615845  0.08944699     0.36800
N1073       N  0.91870400  0.37639886  0.03754311    -0.43400
N1074       N  0.73992858  0.36452112  0.09846779    -0.43400
C1075       C  0.04811128  0.69416813  0.19389763     0.00200
C1076       C  0.04992967  0.72654012  0.20010740    -0.11700
C1077       C  0.03819885  0.73924687  0.22822112     0.02400
C1078       C  0.02521202  0.71928108  0.25134280     0.00100
C1079       C  0.02723754  0.68645851  0.24663588    -0.11700
C1080       C  0.03767049  0.67386938  0.21782053     0.02300
H1081       H  0.05886985  0.74220694  0.18206535     0.15300
H1082       H  0.01686948  0.67086226  0.26395861     0.15300
C1083       C  0.03642923  0.64029915  0.21295927     0.36900
C1084       C  0.03616869  0.77300597  0.23095193     0.36800
N1085       N  0.03531405  0.61338721  0.20906297    -0.43400
N1086       N  0.03445922  0.80007569  0.23293372    -0.43400
C1087       C  0.13273902  0.69637815  0.11734245     0.00200
C1088       C  0.14320040  0.72367745  0.13312188    -0.11700
C1089       C  0.16753537  0.74210227  0.12076876     0.02400
C1090       C  0.18207738  0.73309481  0.09234457     0.00100
C1091       C  0.17645241  0.70254561  0.08067795    -0.11700
C1092       C  0.15123023  0.68454990  0.09226795     0.02300
H1093       H  0.13035655  0.73259137  0.15337768     0.15300
H1094       H  0.18811091  0.69513370  0.05912757     0.15300
C1095       C  0.14374122  0.65530805  0.07664081     0.36900
C1096       C  0.17366616  0.77238841  0.13494854     0.36800
N1097       N  0.13787985  0.63192292  0.06393241    -0.43400
N1098       N  0.17858644  0.79661788  0.14639267    -0.43400
C1099       C  0.91510076  0.73147687  0.24527331     0.00200
C1100       C  0.90645432  0.69983692  0.24051970    -0.11700
C1101       C  0.89898107  0.68866351  0.21041602     0.02400
C1102       C  0.89804579  0.70964495  0.18494507     0.00100
C1103       C  0.90194026  0.74192773  0.19055876    -0.11700
C1104       C  0.91078265  0.75294554  0.22039189     0.02300
H1105       H  0.90997673  0.68308900  0.25936106     0.15300
H1106       H  0.89979809  0.75832458  0.17120442     0.15300
C1107       C  0.91887423  0.78573439  0.22401380     0.36900
C1108       C  0.89360286  0.65543461  0.20590451     0.36800
N1109       N  0.92540111  0.81197756  0.22711139    -0.43400
N1110       N  0.88937752  0.62882483  0.20206060    -0.43400
C1111       C  0.75750793  0.72327774  0.08659446     0.00200
C1112       C  0.78110715  0.74610459  0.09073186    -0.11700
C1113       C  0.81200210  0.73751302  0.09866465     0.02400
C1114       C  0.81977531  0.70555090  0.10293025     0.00100
C1115       C  0.79573609  0.68295991  0.10145646    -0.11700
C1116       C  0.76473836  0.69159966  0.09374212     0.02300
H1117       H  0.77626184  0.77031233  0.08445751     0.15300
H1118       H  0.80123336  0.65852362  0.10607308     0.15300
C1119       C  0.74123866  0.66724803  0.09032903     0.36900
C1120       C  0.83592693  0.76168171  0.09989758     0.36800
N1121       N  0.72241935  0.64772831  0.08748276    -0.43400
N1122       N  0.85515257  0.78099820  0.10070547    -0.43400
C1123       C  0.91208948  0.73961786  0.90736316     0.00200
C1124       C  0.93935371  0.75663301  0.91476081    -0.11700
C1125       C  0.95540826  0.77336149  0.89140549     0.02400
C1126       C  0.94442340  0.77252623  0.86002518     0.00100
C1127       C  0.91555012  0.75802475  0.85338003    -0.11700
C1128       C  0.89935041  0.74150094  0.87669415     0.02300
H1129       H  0.94864593  0.75599569  0.93850316     0.15300
H1130       H  0.90740164  0.75673554  0.82922511     0.15300
C1131       C  0.87155546  0.72401225  0.86760425     0.36900
C1132       C  0.98467892  0.78877844  0.89944566     0.36800
N1133       N  0.84937955  0.70992606  0.86024143    -0.43400
N1134       N  0.00816039  0.80103195  0.90599911    -0.43400
C1135       C  0.81637423  0.71009291  0.96166740     0.00200
C1136       C  0.80762523  0.74181040  0.96463769    -0.11700
C1137       C  0.77718237  0.75035730  0.97383596     0.02400
C1138       C  0.75425678  0.72683995  0.97925468     0.00100
C1139       C  0.76174032  0.69547067  0.97131856    -0.11700
C1140       C  0.79287964  0.68678050  0.96394488     0.02300
H1141       H  0.82539291  0.76004640  0.96232027     0.15300
H1142       H  0.74439329  0.67720866  0.97562195     0.15300
C1143       C  0.80033169  0.65386132  0.96060964     0.36900
C1144       C  0.77182210  0.78289293  0.98219250     0.36800
N1145       N  0.80617515  0.62739241  0.95826711    -0.43400
N1146       N  0.76772048  0.80892018  0.98907823    -0.43400
C1147       C  0.09234804  0.74579675  0.96700986     0.00200
C1148       C  0.12200032  0.75242859  0.95356141    -0.11700
C1149       C  0.14477226  0.76978306  0.96987265     0.02400
C1150       C  0.13788663  0.78139962  0.00019540     0.00100
C1151       C  0.10673511  0.77863734  0.01168795    -0.11700
C1152       C  0.08426989  0.76028112  0.99582294     0.02300
H1153       H  0.12862116  0.74153663  0.93149325     0.15300
H1154       H  0.10122100  0.78746651  0.03505191     0.15300
C1155       C  0.05400829  0.75504701  0.01060540     0.36900
C1156       C  0.17611512  0.77196956  0.95658982     0.36800
N1157       N  0.02986678  0.75059709  0.02260994    -0.43400
N1158       N  0.20120710  0.77384386  0.94591669    -0.43400
C1159       C  0.05716608  0.69795671  0.86838824     0.00200
C1160       C  0.03319267  0.68211781  0.85188954    -0.11700
C1161       C  0.02319954  0.69337365  0.82246932     0.02400
C1162       C  0.03451660  0.72283386  0.81186152     0.00100
C1163       C  0.06370207  0.73287733  0.82336766    -0.11700
C1164       C  0.07550403  0.72019517  0.85135532     0.02300
H1165       H  0.02016800  0.66326730  0.86307972     0.15300
H1166       H  0.07455483  0.75383699  0.81370911     0.15300
C1167       C  0.10536928  0.73190153  0.86263744     0.36900
C1168       C  0.99628763  0.67896679  0.80748024     0.36800
N1169       N  0.12963422  0.74130196  0.87081441    -0.43400
N1170       N  0.97481395  0.66741610  0.79526412    -0.43400
loop_ 
_geom_bond_atom_site_label_1 
_geom_bond_atom_site_label_2 
_geom_bond_distance 
_geom_bond_site_symmetry_2 
_ccdc_geom_bond_type 
C1            N2   1.353       .  A
C1            N6   1.363       .  A
C1         C1147   1.487       .  S
N2            C3   1.354       .  A
C3            N4   1.367       .  A
C3         C1159   1.500       .  S
N4            C5   1.370       .  A
C5            N6   1.363       .  A
C5           C51   1.488       .  S
C7            N8   1.366       .  A
C7           N12   1.348       .  A
C7         C1135   1.480       .  S
N8            C9   1.369       .  A
C9           N10   1.362       .  A
C9           C57   1.479       .  S
N10          C11   1.361       .  A
C11          N12   1.347       .  A
C11        C1123   1.469       .  S
C13          N14   1.348       .  A
C13          N18   1.365       .  A
C13        C1102   1.471       .  S
N14          C15   1.349       .  A
C15          N16   1.367       .  A
C15        C1114   1.478       .  S
N16          C17   1.369       .  A
C17          N18   1.364       .  A
C17          C74   1.486       .  S
C19          N20   1.348       .  A
C19          N24   1.365       .  A
C19        C1075   1.477       .  S
N20          C21   1.351       .  A
C21          N22   1.364       .  A
C21        C1087   1.489       .  S
N22          C23   1.365       .  A
C23          N24   1.367       .  A
C23          C80   1.480       .  S
C25          N26   1.355       .  A
C25          N30   1.370       .  A
C25        C1054   1.509       .  S
N26          C27   1.351       .  A
C27          N28   1.361       .  A
C27        C1063   1.481       .  S
N28          C29   1.362       .  A
C29          N30   1.373       .  A
C29          C77   1.489       .  S
C31          N32   1.365       .  A
C31          N36   1.350       .  A
C31        C1027   1.490       .  S
N32          C33   1.367       .  A
C33          N34   1.369       .  A
C33          C54   1.484       .  S
N34          C35   1.366       .  A
C35          N36   1.347       .  A
C35        C1042   1.479       .  S
C37          N38   1.366       .  A
C37          N42   1.352       .  A
C37        C1006   1.478       .  S
N38          C39   1.366       .  A
C39          N40   1.365       .  A
C39          C60   1.488       .  S
N40          C41   1.366       .  A
C41          N42   1.352       .  A
C41        C1018   1.477       .  S
C43          N44   1.346       .  A
C43          N48   1.364       .  A
C43         C979   1.472       .  S
N44          C45   1.347       .  A
C45          N46   1.367       .  A
C45         C994   1.481       .  S
N46          C47   1.370       .  A
C47          N48   1.364       .  A
C47          C71   1.486       .  S
O49         Zr61   2.447       .  S
O49          C51   1.289       .  A
O50         Zr87   2.472   1_456  S
O50          C51   1.297       .  A
O52         Zr64   2.423       .  S
O52          C54   1.282       .  A
O53         Zr88   2.498   1_556  S
O53          C54   1.301       .  A
O55         Zr64   2.442       .  S
O55          C57   1.287       .  A
O56         Zr87   2.465       .  S
O56          C57   1.294   1_554  A
O58         Zr61   2.452       .  S
O58          C60   1.289       .  A
O59         Zr88   2.478   1_456  S
O59          C60   1.297       .  A
Zr61         O62   2.434       .  S
Zr61         O63   2.437       .  S
Zr61         O67   2.373   1_455  S
Zr61         O68   2.374   1_455  S
Zr61         O91   2.372   1_556  S
Zr61         O93   2.379   1_556  S
O62         H105   0.990   1_455  S
O63         H104   0.990       .  S
O63         H108   0.990       .  S
Zr64         O65   2.437       .  S
Zr64         O66   2.435       .  S
Zr64         O68   2.380       .  S
Zr64         O67   2.370       .  S
Zr64         O92   2.358   1_556  S
Zr64         O94   2.378   1_556  S
O65         H106   0.990       .  S
O65         H109   0.991       .  S
O66          H99   0.990   1_556  S
O67         Zr87   2.393   1_556  S
O68         Zr88   2.403   1_556  S
O68          H95   0.957       .  S
O69         Zr81   2.441       .  S
O69          C71   1.286       .  A
O70         Zr88   2.484   1_455  S
O70          C71   1.298       .  A
O72         Zr84   2.462       .  S
O72          C74   1.291       .  A
O73         Zr87   2.468       .  S
O73          C74   1.295       .  A
O75         Zr84   2.451       .  S
O75          C77   1.289       .  A
O76         Zr88   2.477       .  S
O76          C77   1.298       .  A
O78         Zr81   2.424       .  S
O78          C80   1.283       .  A
O79         Zr87   2.483   1_455  S
O79          C80   1.298       .  A
Zr81         O82   2.437       .  S
Zr81         O83   2.435       .  S
Zr81         O89   2.371   1_455  S
Zr81         O90   2.379   1_455  S
Zr81         O93   2.372       .  S
Zr81         O91   2.365       .  S
O82         H102   0.990       .  S
O82         H107   0.990       .  S
O83         H103   0.990       .  S
Zr84         O85   2.434       .  S
Zr84         O86   2.436       .  S
Zr84         O90   2.375       .  S
Zr84         O89   2.378       .  S
Zr84         O94   2.382       .  S
Zr84         O92   2.369       .  S
O85         H101   0.990       .  S
O86         H100   0.990       .  S
O86         H110   0.990       .  S
Zr87         O90   2.394       .  S
Zr87         O92   2.395       .  S
Zr87         O93   2.397   1_655  S
Zr88         O89   2.403       .  S
Zr88         O91   2.392   1_655  S
Zr88         O94   2.401       .  S
O89          H97   0.974       .  S
O92          H96   0.972       .  S
O93          H98   0.961       .  S
C111        N112   1.365       .  A
C111        N116   1.348       .  A
C111        C955   1.475       .  S
N112        C113   1.367       .  A
C113        N114   1.369       .  A
C113        C161   1.489   1_565  S
N114        C115   1.368       .  A
C115        N116   1.350       .  A
C115        C967   1.481       .  S
C117        N118   1.350       .  A
C117        N122   1.369       .  A
C117        C943   1.497       .  S
N118        C119   1.347       .  A
C119        N120   1.362       .  A
C119        C931   1.470       .  S
N120        C121   1.363       .  A
C121        N122   1.369       .  A
C121        C167   1.482   1_565  S
C123        N124   1.369       .  A
C123        N128   1.352       .  A
C123        C907   1.506       .  S
N124        C125   1.374       .  A
C125        N126   1.365       .  A
C125        C184   1.492       .  S
N126        C127   1.363       .  A
C127        N128   1.349       .  A
C127        C922   1.485       .  S
C129        N130   1.348       .  A
C129        N134   1.362       .  A
C129        C886   1.478       .  S
N130        C131   1.349       .  A
C131        N132   1.368       .  A
C131        C895   1.485       .  S
N132        C133   1.371       .  A
C133        N134   1.363       .  A
C133        C190   1.484       .  S
C135        N136   1.352       .  A
C135        N140   1.366       .  A
C135        C859   1.476       .  S
N136        C137   1.350       .  A
C137        N138   1.363       .  A
C137        C871   1.473       .  S
N138        C139   1.364       .  A
C139        N140   1.365       .  A
C139        C187   1.482       .  S
C141        N142   1.367   1_565  A
C141        N146   1.348       .  A
C141        C835   1.483       .  S
N142        C143   1.369       .  A
C143        N144   1.364   1_545  A
C143        C164   1.485       .  S
N144        C145   1.362       .  A
C145        N146   1.348       .  A
C145        C847   1.478       .  S
C147        N148   1.361   1_565  A
C147        N152   1.347       .  A
C147        C811   1.481   1_565  S
N148        C149   1.363   1_545  A
C149        N150   1.372       .  A
C149        C170   1.482   1_565  S
N150        C151   1.366       .  A
C151        N152   1.349       .  A
C151        C823   1.500       .  S
C153        N154   1.347       .  A
C153        N158   1.363       .  A
C153        C802   1.472       .  S
N154        C155   1.352       .  A
C155        N156   1.367       .  A
C155        C790   1.493       .  S
N156        C157   1.367       .  A
C157        N158   1.365       .  A
C157        C181   1.481       .  S
O159       Zr171   2.442   1_565  S
O159        C161   1.286   1_565  A
O160       Zr197   2.492       .  S
O160        C161   1.300       .  A
O162       Zr174   2.455       .  S
O162        C164   1.290       .  A
O163       Zr198   2.466   1_556  S
O163        C164   1.295       .  A
O165       Zr174   2.436       .  S
O165        C167   1.286       .  A
O166       Zr197   2.479   1_556  S
O166        C167   1.298       .  A
O168       Zr171   2.437   1_565  S
O168        C170   1.286   1_565  A
O169       Zr198   2.471       .  S
O169        C170   1.296       .  A
Zr171       O172   2.435   1_545  S
Zr171       O173   2.436       .  S
Zr171       O177   2.376       .  S
Zr171       O178   2.371       .  S
Zr171       O201   2.376       .  S
Zr171       O203   2.373       .  S
O172        H215   0.990       .  S
O173        H214   0.990       .  S
O173        H218   0.990   1_545  S
Zr174       O175   2.436   1_545  S
Zr174       O176   2.435       .  S
Zr174       O178   2.368   1_556  S
Zr174       O177   2.387   1_556  S
Zr174       O202   2.372       .  S
Zr174       O204   2.364       .  S
O175        H216   0.990       .  S
O175        H219   0.990       .  S
O176        H209   0.990       .  S
O177       Zr197   2.398       .  S
O178       Zr198   2.395       .  S
O178        H205   0.967       .  S
O179       Zr191   2.433       .  S
O179        C181   1.285       .  A
O180       Zr198   2.479       .  S
O180        C181   1.297       .  A
O182       Zr194   2.450       .  S
O182        C184   1.289       .  A
O183       Zr197   2.480   1_556  S
O183        C184   1.299       .  A
O185       Zr194   2.448       .  S
O185        C187   1.288       .  A
O186       Zr198   2.471   1_556  S
O186        C187   1.296       .  A
O188       Zr191   2.449       .  S
O188        C190   1.289       .  A
O189       Zr197   2.466       .  S
O189        C190   1.295       .  A
Zr191       O192   2.437       .  S
Zr191       O193   2.434       .  S
Zr191       O199   2.376       .  S
Zr191       O200   2.367       .  S
Zr191       O203   2.368       .  S
Zr191       O201   2.378       .  S
O192        H212   0.990       .  S
O192        H217   0.990       .  S
O193        H213   0.990       .  S
Zr194       O195   2.434       .  S
Zr194       O196   2.439       .  S
Zr194       O200   2.371   1_556  S
Zr194       O199   2.375   1_556  S
Zr194       O204   2.375       .  S
Zr194       O202   2.377       .  S
O195        H211   0.990   1_556  S
O196        H210   0.990       .  S
O196        H220   0.990       .  S
Zr197       O200   2.392       .  S
Zr197       O202   2.400   1_554  S
Zr197       O203   2.397       .  S
Zr198       O199   2.398       .  S
Zr198       O201   2.395       .  S
Zr198       O204   2.392   1_554  S
O199        H207   0.964       .  S
O202        H206   0.967       .  S
O203        H208   0.969       .  S
C221        N222   1.349       .  A
C221        N226   1.365       .  A
C221        C763   1.476       .  S
N222        C223   1.353       .  A
C223        N224   1.367       .  A
C223        C775   1.492       .  S
N224        C225   1.366       .  A
C225        N226   1.366       .  A
C225        C277   1.487   1_565  S
C227        N228   1.370       .  A
C227        N232   1.350       .  A
C227        C754   1.503       .  S
N228        C229   1.374       .  A
C229        N230   1.364       .  A
C229        C271   1.493   1_565  S
N230        C231   1.363       .  A
C231        N232   1.349       .  A
C231        C739   1.477       .  S
C233        N234   1.367       .  A
C233        N238   1.352       .  A
C233        C715   1.488       .  S
N234        C235   1.368       .  A
C235        N236   1.360       .  A
C235        C300   1.480       .  S
N236        C237   1.360       .  A
C237        N238   1.352       .  A
C237        C727   1.482       .  S
C239        N240   1.366       .  A
C239        N244   1.349       .  A
C239        C691   1.476       .  S
N240        C241   1.368       .  A
C241        N242   1.366       .  A
C241        C294   1.487       .  S
N242        C243   1.366       .  A
C243        N244   1.349       .  A
C243        C706   1.477       .  S
C245        N246   1.367       .  A
C245        N250   1.350       .  A
C245        C667   1.485       .  S
N246        C247   1.370       .  A
C247        N248   1.370       .  A
C247        C291   1.494       .  S
N248        C249   1.369       .  A
C249        N250   1.349       .  A
C249        C682   1.486       .  S
C251        N252   1.362   1_565  A
C251        N256   1.350       .  A
C251        C643   1.470       .  S
N252        C253   1.362   1_545  A
C253        N254   1.370       .  A
C253        C280   1.484   1_565  S
N254        C255   1.368       .  A
C255        N256   1.351       .  A
C255        C655   1.482       .  S
C257        N258   1.364   1_565  A
C257        N262   1.348       .  A
C257        C622   1.476   1_565  S
N258        C259   1.366   1_545  A
C259        N260   1.369       .  A
C259        C274   1.487   1_565  S
N260        C261   1.367       .  A
C261        N262   1.349       .  A
C261        C634   1.487       .  S
C263        N264   1.347       .  A
C263        N268   1.363       .  A
C263        C595   1.480       .  S
N264        C265   1.351       .  A
C265        N266   1.366       .  A
C265        C607   1.499       .  S
N266        C267   1.370       .  A
C267        N268   1.365       .  A
C267        C297   1.483       .  S
O269       Zr281   2.438       .  S
O269        C271   1.286       .  A
O270       Zr307   2.493       .  S
O270        C271   1.300       .  A
O272       Zr284   2.462   1_565  S
O272        C274   1.292   1_565  A
O273       Zr308   2.463   1_455  S
O273        C274   1.294       .  A
O275       Zr284   2.448   1_565  S
O275        C277   1.288   1_565  A
O276       Zr307   2.482   1_455  S
O276        C277   1.298       .  A
O278       Zr281   2.445       .  S
O278        C280   1.288       .  A
O279       Zr308   2.482       .  S
O279        C280   1.298       .  A
Zr281       O282   2.433   1_545  S
Zr281       O283   2.436       .  S
Zr281       O287   2.385       .  S
Zr281       O288   2.375       .  S
Zr281       O311   2.372       .  S
Zr281       O313   2.366       .  S
O282        H325   0.990       .  S
O283        H324   0.990       .  S
O283        H328   0.990       .  S
Zr284       O285   2.437   1_545  S
Zr284       O286   2.434       .  S
Zr284       O288   2.365   1_455  S
Zr284       O287   2.385   1_455  S
Zr284       O312   2.376       .  S
Zr284       O314   2.374       .  S
O285        H326   0.990   1_455  S
O285        H329   0.990   1_455  S
O286        H319   0.990       .  S
O287       Zr307   2.398       .  S
O288       Zr308   2.401       .  S
O288        H315   0.966       .  S
O289       Zr301   2.449       .  S
O289        C291   1.288       .  A
O290       Zr308   2.490       .  S
O290        C291   1.300       .  A
O292       Zr304   2.436       .  S
O292        C294   1.286       .  A
O293       Zr307   2.487   1_455  S
O293        C294   1.299       .  A
O295       Zr304   2.429       .  S
O295        C297   1.284       .  A
O296       Zr308   2.482   1_455  S
O296        C297   1.298       .  A
O298       Zr301   2.457       .  S
O298        C300   1.290       .  A
O299       Zr307   2.454       .  S
O299        C300   1.294       .  A
Zr301       O302   2.437       .  S
Zr301       O303   2.434       .  S
Zr301       O309   2.373       .  S
Zr301       O310   2.365       .  S
Zr301       O313   2.377       .  S
Zr301       O311   2.383       .  S
O302        H322   0.990       .  S
O302        H327   0.990       .  S
O303        H323   0.990       .  S
Zr304       O305   2.434       .  S
Zr304       O306   2.436       .  S
Zr304       O310   2.368   1_455  S
Zr304       O309   2.380   1_455  S
Zr304       O314   2.369       .  S
Zr304       O312   2.367       .  S
O305        H321   0.990       .  S
O306        H320   0.990       .  S
O306        H330   0.990       .  S
Zr307       O310   2.394       .  S
Zr307       O312   2.399   1_655  S
Zr307       O313   2.400       .  S
Zr308       O309   2.401       .  S
Zr308       O311   2.396       .  S
Zr308       O314   2.396   1_655  S
O309        H317   0.960       .  S
O312        H316   0.971       .  S
O313        H318   0.974       .  S
C331       C1051   1.496       .  S
C331        C332   1.391       .  A
C331        C336   1.424       .  A
C332        C333   1.386       .  A
C332        H351   1.086       .  S
C333        C982   1.482   1_655  S
C333        C334   1.410       .  A
C334        C335   1.424       .  A
C334        C341   1.406   1_655  A
C335        C336   1.430       .  A
C335        C340   1.421       .  A
C336        C337   1.406       .  A
C337        C338   1.404       .  A
C337        H347   1.083       .  S
C338        C339   1.407       .  A
C338        H348   1.083       .  S
C339        C340   1.422       .  A
C339        C346   1.421       .  A
C340        C343   1.425       .  A
C341        C342   1.394       .  A
C341        H349   1.083       .  S
C342        C343   1.402   1_455  A
C342        H350   1.083       .  S
C343        C344   1.411       .  A
C344        C598   1.482   1_655  S
C344        C345   1.387       .  A
C345        C346   1.395       .  A
C345        H352   1.087       .  S
C346        C670   1.487       .  S
C353        C787   1.485       .  S
C353        C354   1.393       .  A
C353        C358   1.414       .  A
C354        C355   1.387       .  A
C354        H373   1.086       .  S
C355        C814   1.481       .  S
C355        C356   1.410       .  A
C356        C357   1.424       .  A
C356        C363   1.405       .  A
C357        C358   1.424       .  A
C357        C362   1.417       .  A
C358        C359   1.405       .  A
C359        C360   1.397       .  A
C359        H369   1.083       .  S
C360        C361   1.405       .  A
C360        H370   1.083       .  S
C361        C362   1.425       .  A
C361        C368   1.416       .  A
C362        C365   1.424       .  A
C363        C364   1.393       .  A
C363        H371   1.083       .  S
C364        C365   1.403       .  A
C364        H372   1.083       .  S
C365        C366   1.408       .  A
C366        C619   1.478       .  S
C366        C367   1.385       .  A
C367        C368   1.394       .  A
C367        H374   1.086       .  S
C368        C610   1.487       .  S
C375        C991   1.485       .  S
C375        C376   1.395       .  A
C375        C380   1.417       .  A
C376        C377   1.389   1_554  A
C376        H395   1.087       .  S
C377       C1003   1.485       .  S
C377        C378   1.412       .  A
C378        C379   1.423   1_556  A
C378        C385   1.404       .  A
C379        C380   1.423       .  A
C379        C384   1.419       .  A
C380        C381   1.406       .  A
C381        C382   1.399       .  A
C381        H391   1.083       .  S
C382        C383   1.405       .  A
C382        H392   1.083       .  S
C383        C384   1.426       .  A
C383        C390   1.415       .  A
C384        C387   1.425   1_554  A
C385        C386   1.397       .  A
C385        H393   1.083       .  S
C386        C387   1.405       .  A
C386        H394   1.083       .  S
C387        C388   1.414       .  A
C388        C862   1.485       .  S
C388        C389   1.389   1_556  A
C389        C390   1.387       .  A
C389        H396   1.087       .  S
C390        C799   1.484       .  S
C397        C958   1.487       .  S
C397        C398   1.389       .  A
C397        C402   1.416       .  A
C398        C399   1.391       .  A
C398        H417   1.087       .  S
C399        C898   1.488       .  S
C399        C400   1.419       .  A
C400        C401   1.424       .  A
C400        C407   1.406       .  A
C401        C402   1.426       .  A
C401        C406   1.422       .  A
C402        C403   1.404       .  A
C403        C404   1.397       .  A
C403        H413   1.083   1_545  S
C404        C405   1.405       .  A
C404        H414   1.083   1_545  S
C405        C406   1.425       .  A
C405        C412   1.413       .  A
C406        C409   1.429       .  A
C407        C408   1.402       .  A
C407        H415   1.083       .  S
C408        C409   1.406       .  A
C408        H416   1.083       .  S
C409        C410   1.422       .  A
C410        C679   1.493       .  S
C410        C411   1.389       .  A
C411        C412   1.387       .  A
C411        H418   1.087       .  S
C412        C646   1.483       .  S
C419       C1078   1.489   1_655  S
C419        C420   1.387       .  A
C419        C424   1.418       .  A
C420        C421   1.389       .  A
C420        H439   1.087       .  S
C421       C1099   1.484       .  S
C421        C422   1.415       .  A
C422        C423   1.424       .  A
C422        C429   1.406       .  A
C423        C424   1.428       .  A
C423        C428   1.421       .  A
C424        C425   1.404   1_655  A
C425        C426   1.398       .  A
C425        H435   1.083       .  S
C426        C427   1.406       .  A
C426        H436   1.083       .  S
C427        C428   1.422   1_455  A
C427        C434   1.415       .  A
C428        C431   1.427       .  A
C429        C430   1.400       .  A
C429        H437   1.083       .  S
C430        C431   1.405       .  A
C430        H438   1.083       .  S
C431        C432   1.420       .  A
C432        C658   1.492       .  S
C432        C433   1.390       .  A
C433        C434   1.393   1_655  A
C433        H440   1.086       .  S
C434        C631   1.489       .  S
C441        C838   1.487       .  S
C441        C442   1.396       .  A
C441        C446   1.416       .  A
C442        C443   1.393       .  A
C442        H461   1.086       .  S
C443        C874   1.490       .  S
C443        C444   1.417       .  A
C444        C445   1.423       .  A
C444        C451   1.405       .  A
C445        C446   1.421       .  A
C445        C450   1.420       .  A
C446        C447   1.406       .  A
C447        C448   1.397       .  A
C447        H457   1.083   1_545  S
C448        C449   1.403       .  A
C448        H458   1.083   1_545  S
C449        C450   1.427       .  A
C449        C456   1.413       .  A
C450        C453   1.426       .  A
C451        C452   1.399       .  A
C451        H459   1.083       .  S
C452        C453   1.405       .  A
C452        H460   1.083       .  S
C453        C454   1.416       .  A
C454        C703   1.485       .  S
C454        C455   1.391       .  A
C455        C456   1.384       .  A
C455        H462   1.088       .  S
C456        C766   1.484       .  S
C463       C1015   1.485       .  S
C463        C464   1.388   1_455  A
C463        C468   1.414       .  A
C464        C465   1.390       .  A
C464        H483   1.086       .  S
C465       C1039   1.493       .  S
C465        C466   1.423       .  A
C466        C467   1.427       .  A
C466        C473   1.407       .  A
C467        C468   1.424   1_655  A
C467        C472   1.422       .  A
C468        C469   1.405       .  A
C469        C470   1.398       .  A
C469        H479   1.083       .  S
C470        C471   1.404       .  A
C470        H480   1.083       .  S
C471        C472   1.424   1_455  A
C471        C478   1.415       .  A
C472        C475   1.423       .  A
C473        C474   1.403       .  A
C473        H481   1.083       .  S
C474        C475   1.407       .  A
C474        H482   1.083       .  S
C475        C476   1.420       .  A
C476        C718   1.489       .  S
C476        C477   1.395       .  A
C477        C478   1.391   1_655  A
C477        H484   1.087       .  S
C478        C694   1.488       .  S
C485       C1150   1.490       .  S
C485        C486   1.389       .  A
C485        C490   1.414       .  A
C486        C487   1.393       .  A
C486        H505   1.086       .  S
C487       C1090   1.484       .  S
C487        C488   1.414       .  A
C488        C489   1.423       .  A
C488        C495   1.406       .  A
C489        C490   1.427       .  A
C489        C494   1.419       .  A
C490        C491   1.403       .  A
C491        C492   1.393       .  A
C491        H501   1.083   1_554  S
C492        C493   1.404       .  A
C492        H502   1.083   1_554  S
C493        C494   1.423       .  A
C493        C500   1.408       .  A
C494        C497   1.428       .  A
C495        C496   1.399       .  A
C495        H503   1.083       .  S
C496        C497   1.405       .  A
C496        H504   1.083       .  S
C497        C498   1.419       .  A
C498        C826   1.495       .  S
C498        C499   1.395       .  A
C499        C500   1.386       .  A
C499        H506   1.085       .  S
C500        C850   1.481       .  S
C507       C1030   1.484       .  S
C507        C508   1.396   1_556  A
C507        C512   1.415       .  A
C508        C509   1.387       .  A
C508        H527   1.086       .  S
C509       C1066   1.486       .  S
C509        C510   1.411       .  A
C510        C511   1.426       .  A
C510        C517   1.402       .  A
C511        C512   1.422   1_554  A
C511        C516   1.418       .  A
C512        C513   1.407       .  A
C513        C514   1.399       .  A
C513        H523   1.083       .  S
C514        C515   1.404       .  A
C514        H524   1.083       .  S
C515        C516   1.427   1_556  A
C515        C522   1.419       .  A
C516        C519   1.422       .  A
C517        C518   1.392       .  A
C517        H525   1.083       .  S
C518        C519   1.404       .  A
C518        H526   1.083       .  S
C519        C520   1.407       .  A
C520        C883   1.480       .  S
C520        C521   1.386       .  A
C521        C522   1.396   1_554  A
C521        H528   1.084       .  S
C522        C910   1.494       .  S
C529       C1162   1.490       .  S
C529        C530   1.395   1_455  A
C529        C534   1.418       .  A
C530        C531   1.385       .  A
C530        H549   1.086       .  S
C531       C1126   1.477       .  S
C531        C532   1.407       .  A
C532        C533   1.423       .  A
C532        C539   1.404       .  A
C533        C534   1.427   1_655  A
C533        C538   1.417       .  A
C534        C535   1.406       .  A
C535        C536   1.401       .  A
C535        H545   1.083       .  S
C536        C537   1.406       .  A
C536        H546   1.083       .  S
C537        C538   1.424   1_455  A
C537        C544   1.419       .  A
C538        C541   1.423       .  A
C539        C540   1.392       .  A
C539        H547   1.083       .  S
C540        C541   1.402       .  A
C540        H548   1.083       .  S
C541        C542   1.406       .  A
C542        C742   1.476       .  S
C542        C543   1.385       .  A
C543        C544   1.393   1_655  A
C543        H550   1.087       .  S
C544        C778   1.488       .  S
C551        C946   1.483       .  S
C551        C552   1.395       .  A
C551        C556   1.416       .  A
C552        C553   1.386       .  A
C552        H571   1.086       .  S
C553        C919   1.482       .  S
C553        C554   1.409       .  A
C554        C555   1.424       .  A
C554        C561   1.402       .  A
C555        C556   1.423       .  A
C555        C560   1.418       .  A
C556        C557   1.406       .  A
C557        C558   1.400       .  A
C557        H567   1.083   1_545  S
C558        C559   1.406       .  A
C558        H568   1.083   1_545  S
C559        C560   1.427       .  A
C559        C566   1.420       .  A
C560        C563   1.423       .  A
C561        C562   1.390       .  A
C561        H569   1.083       .  S
C562        C563   1.404       .  A
C562        H570   1.083       .  S
C563        C564   1.407       .  A
C564        C730   1.482       .  S
C564        C565   1.387       .  A
C565        C566   1.396       .  A
C565        H572   1.085       .  S
C566        C751   1.495       .  S
C573       C1138   1.487   1_554  S
C573        C574   1.391       .  A
C573        C578   1.413       .  A
C574        C575   1.390       .  A
C574        H593   1.086       .  S
C575       C1111   1.489       .  S
C575        C576   1.418       .  A
C576        C577   1.424       .  A
C576        C583   1.405       .  A
C577        C578   1.423       .  A
C577        C582   1.420       .  A
C578        C579   1.404   1_554  A
C579        C580   1.395       .  A
C579        H589   1.083       .  S
C580        C581   1.404   1_556  A
C580        H590   1.083       .  S
C581        C582   1.426       .  A
C581        C588   1.411       .  A
C582        C585   1.427       .  A
C583        C584   1.402       .  A
C583        H591   1.083       .  S
C584        C585   1.407       .  A
C584        H592   1.083       .  S
C585        C586   1.420       .  A
C586        C970   1.489       .  S
C586        C587   1.391       .  A
C587        C588   1.385       .  A
C587        H594   1.087       .  S
C588        C934   1.483   1_554  S
C595        C596   1.399       .  A
C595        C600   1.419       .  A
C596        C597   1.400       .  A
C596        H601   1.085       .  S
C597        C598   1.415       .  A
C597        C604   1.443   1_455  S
C598        C599   1.399       .  A
C599        C600   1.401       .  A
C599        H602   1.085       .  S
C600        C603   1.445       .  S
C603        N605   1.157       .  T
C604        N606   1.157       .  T
C607        C608   1.414       .  A
C607        C612   1.414       .  A
C608        C609   1.397       .  A
C608        H613   1.084       .  S
C609        C610   1.406       .  A
C609        C616   1.444       .  S
C610        C611   1.412       .  A
C611        C612   1.407       .  A
C611        H614   1.085       .  S
C612        C615   1.443       .  S
C615        N617   1.157       .  T
C616        N618   1.157       .  T
C619        C620   1.398       .  A
C619        C624   1.414       .  A
C620        C621   1.396   1_545  A
C620        H625   1.085       .  S
C621        C622   1.416   1_565  A
C621        C628   1.446       .  S
C622        C623   1.401       .  A
C623        C624   1.403       .  A
C623        H626   1.084       .  S
C624        C627   1.444       .  S
C627        N629   1.157       .  T
C628        N630   1.157       .  T
C631        C632   1.411       .  A
C631        C636   1.412       .  A
C632        C633   1.405       .  A
C632        H637   1.085       .  S
C633        C634   1.410       .  A
C633        C640   1.442       .  S
C634        C635   1.408       .  A
C635        C636   1.398       .  A
C635        H638   1.085       .  S
C636        C639   1.445       .  S
C639        N641   1.157       .  T
C640        N642   1.157       .  T
C643        C644   1.402       .  A
C643        C648   1.406       .  A
C644        C645   1.401   1_565  A
C644        H649   1.085       .  S
C645        C646   1.412       .  A
C645        C652   1.443       .  S
C646        C647   1.409       .  A
C647        C648   1.400   1_545  A
C647        H650   1.085       .  S
C648        C651   1.444       .  S
C651        N653   1.157       .  T
C652        N654   1.157       .  T
C655        C656   1.402       .  A
C655        C660   1.413       .  A
C656        C657   1.406       .  A
C656        H661   1.085       .  S
C657        C658   1.419       .  A
C657        C664   1.445       .  S
C658        C659   1.403       .  A
C659        C660   1.402       .  A
C659        H662   1.085       .  S
C660        C663   1.444       .  S
C663        N665   1.157       .  T
C664        N666   1.157       .  T
C667        C668   1.404       .  A
C667        C672   1.416       .  A
C668        C669   1.408       .  A
C668        H673   1.084       .  S
C669        C670   1.418       .  A
C669        C676   1.444       .  S
C670        C671   1.401       .  A
C671        C672   1.397       .  A
C671        H674   1.086       .  S
C672        C675   1.444       .  S
C675        N677   1.157       .  T
C676        N678   1.157       .  T
C679        C680   1.415       .  A
C679        C684   1.410       .  A
C680        C681   1.406       .  A
C680        H685   1.085       .  S
C681        C682   1.408       .  A
C681        C688   1.444       .  S
C682        C683   1.407       .  A
C683        C684   1.402       .  A
C683        H686   1.083       .  S
C684        C687   1.444       .  S
C687        N689   1.157       .  T
C688        N690   1.157       .  T
C691        C692   1.402       .  A
C691        C696   1.411       .  A
C692        C693   1.404       .  A
C692        H697   1.085       .  S
C693        C694   1.413       .  A
C693        C700   1.443       .  S
C694        C695   1.405       .  A
C695        C696   1.403       .  A
C695        H698   1.085       .  S
C696        C699   1.444       .  S
C699        N701   1.157       .  T
C700        N702   1.157       .  T
C703        C704   1.410       .  A
C703        C708   1.410       .  A
C704        C705   1.400       .  A
C704        H709   1.085       .  S
C705        C706   1.408       .  A
C705        C712   1.444       .  S
C706        C707   1.406       .  A
C707        C708   1.402       .  A
C707        H710   1.085       .  S
C708        C711   1.443       .  S
C711        N713   1.157       .  T
C712        N714   1.157       .  T
C715        C716   1.404       .  A
C715        C720   1.418       .  A
C716        C717   1.407       .  A
C716        H721   1.084       .  S
C717        C718   1.417       .  A
C717        C724   1.443       .  S
C718        C719   1.401       .  A
C719        C720   1.399       .  A
C719        H722   1.086       .  S
C720        C723   1.445       .  S
C723        N725   1.157       .  T
C724        N726   1.157       .  T
C727        C728   1.409       .  A
C727        C732   1.412       .  A
C728        C729   1.397       .  A
C728        H733   1.084       .  S
C729        C730   1.407       .  A
C729        C736   1.445       .  S
C730        C731   1.407       .  A
C731        C732   1.398       .  A
C731        H734   1.085       .  S
C732        C735   1.444       .  S
C735        N737   1.157       .  T
C736        N738   1.157       .  T
C739        C740   1.407       .  A
C739        C744   1.408       .  A
C740        C741   1.397       .  A
C740        H745   1.084       .  S
C741        C742   1.406       .  A
C741        C748   1.445       .  S
C742        C743   1.406       .  A
C743        C744   1.400       .  A
C743        H746   1.085       .  S
C744        C747   1.442       .  S
C747        N749   1.157       .  T
C748        N750   1.157       .  T
C751        C752   1.399   1_545  A
C751        C756   1.417       .  A
C752        C753   1.402       .  A
C752        H757   1.085       .  S
C753        C754   1.425       .  A
C753        C760   1.445       .  S
C754        C755   1.405   1_565  A
C755        C756   1.407       .  A
C755        H758   1.084       .  S
C756        C759   1.443       .  S
C759        N761   1.157       .  T
C760        N762   1.157       .  T
C763        C764   1.404       .  A
C763        C768   1.408       .  A
C764        C765   1.402   1_565  A
C764        H769   1.085       .  S
C765        C766   1.411       .  A
C765        C772   1.444       .  S
C766        C767   1.408       .  A
C767        C768   1.403   1_545  A
C767        H770   1.085       .  S
C768        C771   1.443       .  S
C771        N773   1.157       .  T
C772        N774   1.157       .  T
C775        C776   1.410       .  A
C775        C780   1.412       .  A
C776        C777   1.398       .  A
C776        H781   1.084       .  S
C777        C778   1.409       .  A
C777        C784   1.445       .  S
C778        C779   1.412       .  A
C779        C780   1.406       .  A
C779        H782   1.085       .  S
C780        C783   1.444       .  S
C783        N785   1.157       .  T
C784        N786   1.157       .  T
C787        C788   1.411       .  A
C787        C792   1.406       .  A
C788        C789   1.405       .  A
C788        H793   1.085       .  S
C789        C790   1.413       .  A
C789        C796   1.443       .  S
C790        C791   1.412       .  A
C791        C792   1.397       .  A
C791        H794   1.084       .  S
C792        C795   1.444       .  S
C795        N797   1.157       .  T
C796        N798   1.157       .  T
C799        C800   1.403       .  A
C799        C804   1.416       .  A
C800        C801   1.401       .  A
C800        H805   1.085       .  S
C801        C802   1.412       .  A
C801        C808   1.444       .  S
C802        C803   1.399       .  A
C803        C804   1.401       .  A
C803        H806   1.085       .  S
C804        C807   1.444       .  S
C807        N809   1.157       .  T
C808        N810   1.157       .  T
C811        C812   1.410   1_545  A
C811        C816   1.409       .  A
C812        C813   1.394   1_565  A
C812        H817   1.085       .  S
C813        C814   1.406       .  A
C813        C820   1.445   1_545  S
C814        C815   1.410       .  A
C815        C816   1.401       .  A
C815        H818   1.085       .  S
C816        C819   1.444       .  S
C819        N821   1.157       .  T
C820        N822   1.157       .  T
C823        C824   1.413       .  A
C823        C828   1.413       .  A
C824        C825   1.399       .  A
C824        H829   1.085       .  S
C825        C826   1.409       .  A
C825        C832   1.444       .  S
C826        C827   1.415       .  A
C827        C828   1.410       .  A
C827        H830   1.085       .  S
C828        C831   1.443       .  S
C831        N833   1.157       .  T
C832        N834   1.157       .  T
C835        C836   1.403       .  A
C835        C840   1.419       .  A
C836        C837   1.405       .  A
C836        H841   1.084       .  S
C837        C838   1.415   1_565  A
C837        C844   1.443   1_565  S
C838        C839   1.400       .  A
C839        C840   1.395   1_545  A
C839        H842   1.085       .  S
C840        C843   1.446       .  S
C843        N845   1.157       .  T
C844        N846   1.157       .  T
C847        C848   1.409       .  A
C847        C852   1.409       .  A
C848        C849   1.397       .  A
C848        H853   1.085       .  S
C849        C850   1.406   1_556  A
C849        C856   1.445       .  S
C850        C851   1.408       .  A
C851        C852   1.399   1_554  A
C851        H854   1.085       .  S
C852        C855   1.444   1_556  S
C855        N857   1.157   1_565  T
C856        N858   1.157       .  T
C859        C860   1.404       .  A
C859        C864   1.408       .  A
C860        C861   1.400       .  A
C860        H865   1.085       .  S
C861        C862   1.411       .  A
C861        C868   1.444       .  S
C862        C863   1.410       .  A
C863        C864   1.401       .  A
C863        H866   1.085       .  S
C864        C867   1.444       .  S
C867        N869   1.157       .  T
C868        N870   1.157       .  T
C871        C872   1.400       .  A
C871        C876   1.410       .  A
C872        C873   1.402       .  A
C872        H877   1.085       .  S
C873        C874   1.416       .  A
C873        C880   1.443       .  S
C874        C875   1.406       .  A
C875        C876   1.402       .  A
C875        H878   1.085       .  S
C876        C879   1.444       .  S
C879        N881   1.157       .  T
C880        N882   1.157       .  T
C883        C884   1.408       .  A
C883        C888   1.406       .  A
C884        C885   1.399       .  A
C884        H889   1.085       .  S
C885        C886   1.409       .  A
C885        C892   1.444       .  S
C886        C887   1.409       .  A
C887        C888   1.396       .  A
C887        H890   1.085       .  S
C888        C891   1.445       .  S
C891        N893   1.157       .  T
C892        N894   1.157       .  T
C895        C896   1.406       .  A
C895        C900   1.408       .  A
C896        C897   1.396       .  A
C896        H901   1.085       .  S
C897        C898   1.411       .  A
C897        C904   1.445       .  S
C898        C899   1.414       .  A
C899        C900   1.409       .  A
C899        H902   1.084       .  S
C900        C903   1.443       .  S
C903        N905   1.157       .  T
C904        N906   1.157       .  T
C907        C908   1.416       .  A
C907        C912   1.415       .  A
C908        C909   1.400       .  A
C908        H913   1.083       .  S
C909        C910   1.405       .  A
C909        C916   1.444       .  S
C910        C911   1.413       .  A
C911        C912   1.412       .  A
C911        H914   1.084       .  S
C912        C915   1.441       .  S
C915        N917   1.157       .  T
C916        N918   1.157       .  T
C919        C920   1.396       .  A
C919        C924   1.414       .  A
C920        C921   1.394       .  A
C920        H925   1.086       .  S
C921        C922   1.421       .  A
C921        C928   1.445       .  S
C922        C923   1.404       .  A
C923        C924   1.404       .  A
C923        H926   1.084       .  S
C924        C927   1.444       .  S
C927        N929   1.157       .  T
C928        N930   1.157       .  T
C931        C932   1.398       .  A
C931        C936   1.413       .  A
C932        C933   1.397       .  A
C932        H937   1.085       .  S
C933        C934   1.415       .  A
C933        C940   1.444       .  S
C934        C935   1.403       .  A
C935        C936   1.402       .  A
C935        H938   1.085       .  S
C936        C939   1.444       .  S
C939        N941   1.157       .  T
C940        N942   1.157   1_556  T
C943        C944   1.405   1_565  A
C943        C948   1.428       .  A
C944        C945   1.403       .  A
C944        H949   1.084       .  S
C945        C946   1.414       .  A
C945        C952   1.444       .  S
C946        C947   1.395   1_545  A
C947        C948   1.399       .  A
C947        H950   1.085       .  S
C948        C951   1.445       .  S
C951        N953   1.158       .  T
C952        N954   1.157       .  T
C955        C956   1.401   1_565  A
C955        C960   1.411   1_565  A
C956        C957   1.403       .  A
C956        H961   1.085   1_545  S
C957        C958   1.415       .  A
C957        C964   1.444       .  S
C958        C959   1.404       .  A
C959        C960   1.402       .  A
C959        H962   1.085       .  S
C960        C963   1.445   1_545  S
C963        N965   1.157       .  T
C964        N966   1.157       .  T
C967        C968   1.407       .  A
C967        C972   1.407       .  A
C968        C969   1.400       .  A
C968        H973   1.085       .  S
C969        C970   1.409       .  A
C969        C976   1.443       .  S
C970        C971   1.414       .  A
C971        C972   1.405       .  A
C971        H974   1.085       .  S
C972        C975   1.444       .  S
C975        N977   1.157       .  T
C976        N978   1.157       .  T
C979        C980   1.407       .  A
C979        C984   1.405       .  A
C980        C981   1.398       .  A
C980        H985   1.085       .  S
C981        C982   1.408       .  A
C981        C988   1.445       .  S
C982        C983   1.410   1_455  A
C983        C984   1.398   1_655  A
C983        H986   1.085       .  S
C984        C987   1.444   1_455  S
C987        N989   1.157       .  T
C988        N990   1.157       .  T
C991        C992   1.399       .  A
C991        C996   1.416       .  A
C992        C993   1.396       .  A
C992        H997   1.085       .  S
C993        C994   1.419       .  A
C993       C1000   1.446       .  S
C994        C995   1.402       .  A
C995        C996   1.404       .  A
C995        H998   1.084       .  S
C996        C999   1.443       .  S
C999       N1001   1.157       .  T
C1000      N1002   1.157       .  T
C1003      C1004   1.404       .  A
C1003      C1008   1.412       .  A
C1004      C1005   1.401       .  A
C1004      H1009   1.085       .  S
C1005      C1006   1.411       .  A
C1005      C1012   1.443       .  S
C1006      C1007   1.403       .  A
C1007      C1008   1.405       .  A
C1007      H1010   1.084       .  S
C1008      C1011   1.443       .  S
C1011      N1013   1.157       .  T
C1012      N1014   1.157       .  T
C1015      C1016   1.403       .  A
C1015      C1020   1.416       .  A
C1016      C1017   1.401       .  A
C1016      H1021   1.085       .  S
C1017      C1018   1.411       .  A
C1017      C1024   1.442       .  S
C1018      C1019   1.401       .  A
C1019      C1020   1.403       .  A
C1019      H1022   1.085       .  S
C1020      C1023   1.444       .  S
C1023      N1025   1.157       .  T
C1024      N1026   1.157       .  T
C1027      C1028   1.412       .  A
C1027      C1032   1.412       .  A
C1028      C1029   1.396       .  A
C1028      H1033   1.084       .  S
C1029      C1030   1.405       .  A
C1029      C1036   1.444       .  S
C1030      C1031   1.410       .  A
C1031      C1032   1.404       .  A
C1031      H1034   1.085       .  S
C1032      C1035   1.443       .  S
C1035      N1037   1.157       .  T
C1036      N1038   1.157       .  T
C1039      C1040   1.403       .  A
C1039      C1044   1.422       .  A
C1040      C1041   1.402       .  A
C1040      H1045   1.085       .  S
C1041      C1042   1.412       .  A
C1041      C1048   1.444       .  S
C1042      C1043   1.400       .  A
C1043      C1044   1.405       .  A
C1043      H1046   1.085       .  S
C1044      C1047   1.445       .  S
C1047      N1049   1.157       .  T
C1048      N1050   1.157       .  T
C1051      C1052   1.416       .  A
C1051      C1056   1.407       .  A
C1052      C1053   1.412       .  A
C1052      H1057   1.085       .  S
C1053      C1054   1.415       .  A
C1053      C1060   1.443       .  S
C1054      C1055   1.415       .  A
C1055      C1056   1.402       .  A
C1055      H1058   1.084       .  S
C1056      C1059   1.443       .  S
C1059      N1061   1.157       .  T
C1060      N1062   1.157       .  T
C1063      C1064   1.406       .  A
C1063      C1068   1.409       .  A
C1064      C1065   1.399       .  A
C1064      H1069   1.085       .  S
C1065      C1066   1.409       .  A
C1065      C1072   1.444       .  S
C1066      C1067   1.409       .  A
C1067      C1068   1.402       .  A
C1067      H1070   1.085       .  S
C1068      C1071   1.444       .  S
C1071      N1073   1.157       .  T
C1072      N1074   1.157       .  T
C1075      C1076   1.404       .  A
C1075      C1080   1.407       .  A
C1076      C1077   1.399       .  A
C1076      H1081   1.085       .  S
C1077      C1078   1.412       .  A
C1077      C1084   1.443       .  S
C1078      C1079   1.413       .  A
C1079      C1080   1.405       .  A
C1079      H1082   1.085       .  S
C1080      C1083   1.443       .  S
C1083      N1085   1.157       .  T
C1084      N1086   1.157       .  T
C1087      C1088   1.411       .  A
C1087      C1092   1.412       .  A
C1088      C1089   1.397       .  A
C1088      H1093   1.084       .  S
C1089      C1090   1.406       .  A
C1089      C1096   1.444       .  S
C1090      C1091   1.410       .  A
C1091      C1092   1.403       .  A
C1091      H1094   1.085       .  S
C1092      C1095   1.444       .  S
C1095      N1097   1.157       .  T
C1096      N1098   1.157       .  T
C1099      C1100   1.409       .  A
C1099      C1104   1.413       .  A
C1100      C1101   1.400       .  A
C1100      H1105   1.085       .  S
C1101      C1102   1.407       .  A
C1101      C1108   1.444       .  S
C1102      C1103   1.403       .  A
C1103      C1104   1.402       .  A
C1103      H1106   1.085       .  S
C1104      C1107   1.444       .  S
C1107      N1109   1.157       .  T
C1108      N1110   1.157       .  T
C1111      C1112   1.404       .  A
C1111      C1116   1.417       .  A
C1112      C1113   1.402       .  A
C1112      H1117   1.085       .  S
C1113      C1114   1.412       .  A
C1113      C1120   1.444       .  S
C1114      C1115   1.401       .  A
C1115      C1116   1.404       .  A
C1115      H1118   1.085       .  S
C1116      C1119   1.444       .  S
C1119      N1121   1.157       .  T
C1120      N1122   1.157       .  T
C1123      C1124   1.399       .  A
C1123      C1128   1.415       .  A
C1124      C1125   1.398       .  A
C1124      H1129   1.085       .  S
C1125      C1126   1.414       .  A
C1125      C1132   1.444       .  S
C1126      C1127   1.399       .  A
C1127      C1128   1.396       .  A
C1127      H1130   1.085       .  S
C1128      C1131   1.445       .  S
C1131      N1133   1.157       .  T
C1132      N1134   1.157   1_655  T
C1135      C1136   1.405       .  A
C1135      C1140   1.408       .  A
C1136      C1137   1.395       .  A
C1136      H1141   1.085       .  S
C1137      C1138   1.413       .  A
C1137      C1144   1.446       .  S
C1138      C1139   1.412       .  A
C1139      C1140   1.405       .  A
C1139      H1142   1.085       .  S
C1140      C1143   1.443       .  S
C1143      N1145   1.157       .  T
C1144      N1146   1.157       .  T
C1147      C1148   1.407       .  A
C1147      C1152   1.410       .  A
C1148      C1149   1.399       .  A
C1148      H1153   1.081       .  S
C1149      C1150   1.408   1_556  A
C1149      C1156   1.444       .  S
C1150      C1151   1.411       .  A
C1151      C1152   1.403   1_554  A
C1151      H1154   1.085       .  S
C1152      C1155   1.443   1_556  S
C1155      N1157   1.157       .  T
C1156      N1158   1.157       .  T
C1159      C1160   1.406       .  A
C1159      C1164   1.423       .  A
C1160      C1161   1.407       .  A
C1160      H1165   1.084       .  S
C1161      C1162   1.417       .  A
C1161      C1168   1.443   1_455  S
C1162      C1163   1.397       .  A
C1163      C1164   1.402       .  A
C1163      H1166   1.085       .  S
C1164      C1167   1.442       .  S
C1167      N1169   1.157       .  T
C1168      N1170   1.157       .  T
