geometry optimzed in LAMMPS
_audit_creation_date              2020-12-01 
_audit_creation_method            'lammps2cif' 
_symmetry_space_group_name_H-M    'P1' 
_symmetry_Int_Tables_number       1 
_symmetry_cell_setting            triclinic 
loop_ 
_symmetry_equiv_pos_as_xyz 
  x,y,z 
_cell_length_a                    47.77035746 
_cell_length_b                    47.78334679745828 
_cell_length_c                    43.17356148205785 
_cell_angle_alpha                 89.85510946886825 
_cell_angle_beta                  90.15700884227283 
_cell_angle_gamma                 119.8094027034654 
loop_ 
_atom_site_label 
_atom_site_type_symbol 
_atom_site_fract_x 
_atom_site_fract_y 
_atom_site_fract_z 
_atom_site_charge 
O1          O  0.68535827  0.65965032  0.79835935    -0.57300
C2          C  0.66864218  0.69997066  0.69294746     0.75300
O3          O  0.66533870  0.72062566  0.77008109    -0.58400
C4          C  0.71013023  0.68542740  0.80745614     0.75300
C5          C  0.70613248  0.64682676  0.72054600     0.77700
Cd6        Cd  0.67927200  0.68156128  0.75116878     1.37500
O7          O  0.64831234  0.67355614  0.70577446    -0.57300
O8          O  0.67697778  0.63163053  0.73031710    -0.56100
C9          C  0.63701373  0.70063456  0.77936546     0.77700
O10         O  0.72188204  0.67702788  0.72588743    -0.58500
O11         O  0.69425195  0.71870669  0.70810523    -0.56900
O12         O  0.72138189  0.71004634  0.78965235    -0.56900
O13         O  0.62762219  0.67063903  0.77581439    -0.56100
O14         O  0.62743543  0.66238541  0.38444075    -0.57300
C15         C  0.62142950  0.70217676  0.47092041     0.75300
O16         O  0.57206230  0.71086900  0.39292145    -0.58400
C17         C  0.60734673  0.64963895  0.36237848     0.75300
C18         C  0.54329996  0.61268058  0.44217326     0.77700
Cd19       Cd  0.59039300  0.67339040  0.41457683     1.37500
O20         O  0.63444792  0.69194246  0.45179216    -0.57300
O21         O  0.57345108  0.62344452  0.44220041    -0.56100
C22         C  0.59964370  0.72991869  0.38123441     0.77700
O23         O  0.53374468  0.63009844  0.42841356    -0.58500
O24         O  0.59514031  0.70049243  0.46271607    -0.56900
O25         O  0.57940809  0.64591318  0.36639564    -0.56900
O26         O  0.62151470  0.72280555  0.38590328    -0.56100
O27         O  0.67834828  0.65065935  0.12486029    -0.57300
C28         C  0.71290396  0.64733683  0.02993047     0.75300
O29         O  0.72723136  0.60132418  0.11159120    -0.58400
C30         C  0.66603465  0.62786326  0.14463522     0.75300
C31         C  0.62582037  0.56825958  0.06319038     0.77700
Cd32       Cd  0.68857902  0.61692659  0.08795982     1.37500
O33         O  0.70080410  0.65866184  0.04901216    -0.57300
O34         O  0.63496754  0.59804791  0.06536783    -0.56100
C35         C  0.74876870  0.63041885  0.11739260     0.77700
O36         O  0.64599581  0.55993391  0.07266243    -0.58500
O37         O  0.71496580  0.62302263  0.03864379    -0.56900
O38         O  0.66367653  0.60121386  0.13702656    -0.56900
O39         O  0.74265132  0.65203396  0.10827235    -0.56100
O40         O  0.98015033  0.35550162  0.12123007    -0.57300
C41         C  0.94784588  0.32050075  0.02500026     0.75300
O42         O  0.88179619  0.30283603  0.10359440    -0.58400
C43         C  0.96800940  0.36704777  0.14004781     0.75300
C44         C  0.95259601  0.40194144  0.05391637     0.77700
Cd45       Cd  0.93696494  0.34126215  0.08261390     1.37500
O46         O  0.96835129  0.32795558  0.04685101    -0.57300
O47         O  0.97336705  0.39493920  0.06379349    -0.56100
C48         C  0.88800905  0.28008552  0.10822099     0.77700
O49         O  0.92304581  0.38091598  0.05860609    -0.58500
O50         O  0.92205160  0.32076361  0.03123241    -0.56900
O51         O  0.94260497  0.36700120  0.13133695    -0.56900
O52         O  0.91578044  0.28562154  0.10007786    -0.56100
O53         O  0.00144328  0.29466469  0.78637639    -0.57300
C54         C  0.04601914  0.29823261  0.69784979     0.75300
O55         O  0.05441371  0.24541883  0.77634045    -0.58400
C56         C  0.99255867  0.27462575  0.80869214     0.75300
C57         C  0.95620917  0.21454108  0.72394867     0.77700
Cd58       Cd  0.01598742  0.26210478  0.75297233     1.37500
O59         O  0.03230740  0.30782242  0.71686329    -0.57300
O60         O  0.96380589  0.24351674  0.72917960    -0.56100
C61         C  0.07247917  0.27354837  0.78754182     0.77700
O62         O  0.97597096  0.20584628  0.73369445    -0.58500
O63         O  0.04681666  0.27293981  0.70525727    -0.56900
O64         O  0.99204161  0.24823745  0.80363179    -0.56900
O65         O  0.06491091  0.29470804  0.78078241    -0.56100
O66         O  0.01603278  0.31365641  0.46773553    -0.57300
C67         C  0.00643778  0.36361423  0.36364585     0.75300
O68         O  0.00213332  0.38015861  0.44506210    -0.58400
C69         C  0.04223947  0.33808460  0.47658169     0.75300
C70         C  0.02889839  0.29842015  0.38652609     0.77700
Cd71       Cd  0.01037057  0.33855803  0.42131730     1.37500
O72         O  0.98310034  0.33835657  0.37544814    -0.57300
O73         O  0.00014310  0.28594376  0.39721889    -0.56100
C74         C  0.97233362  0.36292654  0.45150930     0.77700
O75         O  0.04771741  0.32794098  0.39307465    -0.58500
O76         O  0.03204585  0.37889192  0.37994244    -0.56900
O77         O  0.05455060  0.36280386  0.45891952    -0.56900
O78         O  0.95908381  0.33307037  0.44410060    -0.56100
O79         O  0.03553662  0.69416109  0.21638118    -0.57300
C80         C  0.00419684  0.68947567  0.31704115     0.75300
O81         O  0.06088240  0.77608900  0.27974614    -0.58400
C82         C  0.04146661  0.71647194  0.19680140     0.75300
C83         C  0.95851983  0.70221138  0.23583354     0.77700
Cd84       Cd  0.02257683  0.72099269  0.25852914     1.37500
O85         O  0.01187160  0.67679113  0.29506470    -0.57300
O86         O  0.96884437  0.68269441  0.24037395    -0.56100
C87         C  0.08351143  0.76969366  0.28462740     0.77700
O88         O  0.97752622  0.73150114  0.24364380    -0.58500
O89         O  0.00406003  0.71539187  0.31099486    -0.56900
O90         O  0.04113224  0.74123096  0.20691010    -0.56900
O91         O  0.07816203  0.74221304  0.27557281    -0.56100
O92         O  0.00824368  0.65508994  0.86416539    -0.57300
C93         C  0.05231935  0.69020546  0.96529188     0.75300
O94         O  0.06191881  0.62705974  0.92030927    -0.58400
C95         C  0.02150346  0.64598185  0.84393215     0.75300
C96         C  0.09424775  0.73604386  0.87916081     0.77700
Cd97       Cd  0.05206308  0.67165235  0.90270018     1.37500
O98         O  0.02944573  0.68644707  0.94719989    -0.57300
O99         O  0.06488283  0.72560837  0.88630437    -0.56100
C100        C  0.03336828  0.61037003  0.93132975     0.77700
O101        O  0.10500264  0.71660846  0.88370635    -0.58500
O102        O  0.07556163  0.68821193  0.95327865    -0.56900
O103        O  0.04832322  0.64826492  0.85150552    -0.56900
O104        O  0.01425707  0.62127702  0.92668766    -0.56100
O105        O  0.92704140  0.57977058  0.60958185    -0.57300
C106        C  0.90956689  0.58466071  0.52190753     0.75300
O107        O  0.85793594  0.49647688  0.54310603    -0.58400
C108        C  0.91427315  0.56469726  0.63450927     0.75300
C109        C  0.82850737  0.56083463  0.59634103     0.77700
Cd110      Cd  0.87918169  0.54685384  0.57643583     1.37500
O111        O  0.92498246  0.59010214  0.54720783    -0.57300
O112        O  0.85484351  0.58169541  0.58436476    -0.56100
C113        C  0.87776599  0.48821997  0.55310822     0.77700
O114        O  0.82384003  0.53222581  0.59687495    -0.58500
O115        O  0.88012244  0.56308738  0.52268616    -0.56900
O116        O  0.88606953  0.54067944  0.63205379    -0.56900
O117        O  0.89486635  0.50439086  0.57583085    -0.56100
O118        O  0.32861956  0.02874674  0.79027197    -0.57300
C119        C  0.28512147  0.00000415  0.69543036     0.75300
O120        O  0.22794244  0.98118636  0.78146442    -0.58400
C121        C  0.32353339  0.04645285  0.80876554     0.75300
C122        C  0.29580966  0.07654054  0.72792803     0.77700
Cd123      Cd  0.28176292  0.01758162  0.75698842     1.37500
O124        O  0.30646847  0.00323947  0.71514978    -0.57300
O125        O  0.31590107  0.06668565  0.73064523    -0.56100
C126        C  0.23168722  0.95656506  0.78093334     0.77700
O127        O  0.26835357  0.05962366  0.74091099    -0.58500
O128        O  0.26120407  0.00194475  0.70550103    -0.56900
O129        O  0.29928867  0.04977305  0.80323623    -0.56900
O130        O  0.25782543  0.96061490  0.76945789    -0.56100
O131        O  0.34581878  0.01112826  0.45221209    -0.57300
C132        C  0.38809613  0.00234980  0.36338864     0.75300
O133        O  0.38833773  0.95233092  0.44659987    -0.58400
C134        C  0.32883471  0.98917966  0.47171670     0.75300
C135        C  0.29481846  0.92521594  0.39306998     0.77700
Cd136      Cd  0.35547405  0.97353374  0.42033372     1.37500
O137        O  0.37615331  0.01607596  0.37956605    -0.57300
O138        O  0.30390236  0.95502961  0.39423706    -0.56100
C139        C  0.40942045  0.98012059  0.45637338     0.77700
O140        O  0.31399525  0.91685070  0.40504604    -0.58500
O141        O  0.38577631  0.97670969  0.37449103    -0.56900
O142        O  0.32369966  0.96099808  0.46624253    -0.56900
O143        O  0.40499802  0.00330166  0.44907031    -0.56100
O144        O  0.33855592  0.03532208  0.03167665    -0.57300
C145        C  0.38374137  0.02636376  0.13847183     0.75300
O146        O  0.39039004  0.00579884  0.05822285    -0.58400
C147        C  0.36527551  0.06003058  0.02496122     0.75300
C148        C  0.30887799  0.04007168  0.10541282     0.77700
Cd149      Cd  0.35516877  0.02371696  0.07985299     1.37500
O150        O  0.35788663  0.00220201  0.12891055    -0.57300
O151        O  0.29951402  0.01078679  0.09816329    -0.56100
C152        C  0.36957931  0.97748123  0.05004740     0.77700
O153        O  0.33839429  0.06014539  0.10057686    -0.58500
O154        O  0.39768428  0.05023808  0.12001421    -0.56900
O155        O  0.38816474  0.06898763  0.04452164    -0.56900
O156        O  0.34025147  0.96903273  0.05612205    -0.56100
O157        O  0.65420042  0.98758623  0.19991544    -0.57300
C158        C  0.69760019  0.02355476  0.30009771     0.75300
O159        O  0.70594234  0.95912660  0.25838941    -0.58400
C160        C  0.66604658  0.97499420  0.18186631     0.75300
C161        C  0.74163841  0.06515763  0.21369072     0.77700
Cd162      Cd  0.69687524  0.00285177  0.23893059     1.37500
O163        O  0.67404451  0.01801545  0.28217485    -0.57300
O164        O  0.71223777  0.05619076  0.21927332    -0.56100
C165        C  0.67653991  0.94135822  0.26675986     0.77700
O166        O  0.75095671  0.04492014  0.22007437    -0.58500
O167        O  0.72108212  0.02187636  0.28830658    -0.56900
O168        O  0.69187421  0.97577740  0.19060622    -0.56900
O169        O  0.65735854  0.95195011  0.26099604    -0.56100
O170        O  0.65969218  0.99983199  0.63062349    -0.57300
C171        C  0.69047227  0.04233181  0.53146777     0.75300
O172        O  0.63466553  0.06088502  0.58259101    -0.58400
C173        C  0.65214370  0.01360599  0.65166632     0.75300
C174        C  0.74021238  0.08446948  0.61702183     0.77700
Cd175      Cd  0.67586149  0.04495253  0.59405231     1.37500
O176        O  0.68374386  0.01859791  0.54952965    -0.57300
O177        O  0.72945054  0.05568037  0.60783758    -0.56100
C178        C  0.61562302  0.03364926  0.57006982     0.77700
O179        O  0.72132706  0.09609844  0.61427476    -0.58500
O180        O  0.69318001  0.06782693  0.54355222    -0.56900
O181        O  0.65460443  0.04061153  0.64486467    -0.56900
O182        O  0.62404179  0.01230064  0.57077726    -0.56100
O183        O  0.58182161  0.90643434  0.94714487    -0.57300
C184        C  0.56740489  0.91349665  0.86060226     0.75300
O185        O  0.51714658  0.82240741  0.87878529    -0.58400
C186        C  0.56791239  0.89110575  0.97159383     0.75300
C187        C  0.48112106  0.87962340  0.93122609     0.77700
Cd188      Cd  0.53576299  0.87150115  0.91266801     1.37500
O189        O  0.58344795  0.91203090  0.88335414    -0.57300
O190        O  0.50628429  0.90102936  0.91794932    -0.56100
C191        C  0.53721551  0.81472511  0.88933056     0.77700
O192        O  0.47925199  0.85226120  0.93403543    -0.58500
O193        O  0.53699658  0.89689302  0.86284307    -0.56900
O194        O  0.54022381  0.86662937  0.96830214    -0.56900
O195        O  0.55342377  0.83079999  0.91245539    -0.56100
O196        O  0.24016204  0.24066229  0.28393940    -0.57300
C197        C  0.22851947  0.23887040  0.19543672     0.75300
O198        O  0.18154969  0.15074940  0.21448596    -0.58400
C199        C  0.23247120  0.22256975  0.30762124     0.75300
C200        C  0.14099922  0.20211461  0.26710544     0.77700
Cd201      Cd  0.19866918  0.19911821  0.24908275     1.37500
O202        O  0.24542886  0.23749931  0.21743927    -0.57300
O203        O  0.16350819  0.22326991  0.25072411    -0.56100
C204        C  0.20354835  0.14503199  0.22334844     0.77700
O205        O  0.14318444  0.17724781  0.27322435    -0.58500
O206        O  0.19826345  0.22365048  0.19925207    -0.56900
O207        O  0.21003123  0.19377658  0.30375417    -0.56900
O208        O  0.21974917  0.16107638  0.24650340    -0.56100
O209        O  0.32884619  0.33035600  0.96858798    -0.57300
C210        C  0.36445304  0.36966320  0.87061790     0.75300
O211        O  0.30246071  0.38661372  0.91126745    -0.58400
C212        C  0.31913352  0.34307877  0.98877882     0.75300
C213        C  0.40680393  0.42146040  0.96089312     0.77700
Cd214      Cd  0.34552329  0.37549247  0.93188175     1.37500
O215        O  0.35896504  0.34796072  0.89078865    -0.57300
O216        O  0.40008931  0.39349747  0.95189957    -0.56100
C217        C  0.28254634  0.35667011  0.90664004     0.77700
O218        O  0.38549892  0.42952072  0.95510911    -0.58500
O219        O  0.36396563  0.39457714  0.88008462    -0.56900
O220        O  0.32147776  0.37002797  0.98192954    -0.56900
O221        O  0.29178989  0.33705273  0.91479845    -0.56100
O222        O  0.34519632  0.34449197  0.62154746    -0.57300
C223        C  0.33089985  0.30496043  0.51905388     0.75300
O224        O  0.41743745  0.37573160  0.54998936    -0.58400
C225        C  0.36919688  0.34884072  0.63822495     0.75300
C226        C  0.35656015  0.27424448  0.59856368     0.77700
Cd227      Cd  0.36704831  0.33361718  0.57430532     1.37500
O228        O  0.32005237  0.31665064  0.53923123    -0.57300
O229        O  0.33401924  0.28078062  0.59491992    -0.56100
C230        C  0.40779990  0.39627155  0.54805293     0.77700
O231        O  0.38462719  0.29483288  0.58868040    -0.58500
O232        O  0.35767251  0.30651021  0.52513136    -0.56900
O233        O  0.39268091  0.34897779  0.62433117    -0.56900
O234        O  0.38025698  0.38797892  0.55942737    -0.56100
C235        C  0.36425156  0.33329243  0.79182606    -0.27100
C236        C  0.37189164  0.35958009  0.77215980     0.02500
C237        C  0.37949341  0.38945998  0.78519799     0.30600
C238        C  0.37842033  0.39258063  0.81729397    -0.18900
C239        C  0.36961311  0.36611265  0.83718106    -0.28300
C240        C  0.36275019  0.33626386  0.82409775     0.44600
C241        C  0.37069491  0.35572329  0.73800554     0.05800
O242        O  0.38725542  0.41566387  0.76664322    -0.56800
H243        H  0.38372451  0.41575943  0.82655812     0.18800
O244        O  0.35346112  0.30958448  0.84239118    -0.63500
H245        H  0.35825448  0.31010496  0.78205228     0.17200
C246        C  0.39254835  0.34911931  0.72243054     0.29500
C247        C  0.39228120  0.34783372  0.68998167    -0.24400
C248        C  0.36974910  0.35218502  0.67249590    -0.23700
C249        C  0.34736818  0.35801898  0.68829230     0.40900
C250        C  0.34814878  0.35999290  0.72071680    -0.26100
O251        O  0.41489139  0.34488497  0.73867256    -0.58000
H252        H  0.40950435  0.34288655  0.67852030     0.16500
O253        O  0.32450010  0.36165012  0.67238336    -0.59500
H254        H  0.33101812  0.36486311  0.73248556     0.15000
H255        H  0.32953098  0.29858812  0.84293422     0.46900
H256        H  0.40517123  0.32121672  0.74101618     0.42200
H257        H  0.33434331  0.38525304  0.66887171     0.45700
H258        H  0.41030347  0.42441390  0.76123039     0.37200
C259        C  0.29425356  0.33134150  0.07338735    -0.27100
C260        C  0.28040903  0.29791803  0.07681677     0.02500
C261        C  0.27890236  0.27913950  0.05110540     0.30600
C262        C  0.29167002  0.29402067  0.02250066    -0.18900
C263        C  0.30580451  0.32760250  0.01908672    -0.28300
C264        C  0.30676620  0.34621743  0.04486270     0.44600
C265        C  0.26759777  0.28313849  0.10744159     0.05800
O266        O  0.26385546  0.24618098  0.05345999    -0.56800
H267        H  0.29010723  0.27922254  0.00287391     0.18800
O268        O  0.32106635  0.37915581  0.04280501    -0.63500
H269        H  0.29563142  0.34603110  0.09305326     0.17200
C270        C  0.28194840  0.26844913  0.12456187     0.29500
C271        C  0.26976162  0.25517320  0.15377314    -0.24400
C272        C  0.24302935  0.25602972  0.16615903    -0.23700
C273        C  0.22901683  0.27116941  0.14917609     0.40900
C274        C  0.24158947  0.28495032  0.12023016    -0.26100
O275        O  0.30782110  0.26689353  0.11291779    -0.58000
H276        H  0.28067442  0.24339533  0.16639833     0.16500
O277        O  0.20362053  0.27342359  0.16109058    -0.59500
H278        H  0.23074856  0.29674996  0.10752110     0.15000
H279        H  0.30297074  0.38368706  0.04114435     0.46900
H280        H  0.32701903  0.28803516  0.11812482     0.42200
H281        H  0.18417567  0.25621272  0.15063359     0.45700
H282        H  0.28158175  0.24102187  0.05490987     0.37200
C283        C  0.27824797  0.28593852  0.44683004    -0.27100
C284        C  0.28711340  0.26632365  0.43021452     0.02500
C285        C  0.30878145  0.25798439  0.44372104     0.30600
C286        C  0.32228303  0.27030032  0.47283466    -0.18900
C287        C  0.31397828  0.29046717  0.48939955    -0.28300
C288        C  0.29123544  0.29774602  0.47632570     0.44600
C289        C  0.27392267  0.25498076  0.39866678     0.05800
O290        O  0.31798481  0.23895813  0.42800652    -0.56800
H291        H  0.33955903  0.26417608  0.48237250     0.18800
O292        O  0.28196031  0.31680940  0.49183646    -0.63500
H293        H  0.26127622  0.29222034  0.43680770     0.17200
C294        C  0.25226811  0.22219334  0.39287304     0.29500
C295        C  0.23951193  0.21203248  0.36309731    -0.24400
C296        C  0.24811293  0.23414947  0.33845223    -0.23700
C297        C  0.27055603  0.26696565  0.34419401     0.40900
C298        C  0.28294243  0.27714374  0.37416201    -0.26100
O299        O  0.24311754  0.19991271  0.41628955    -0.58000
H300        H  0.22251132  0.18669249  0.35942387     0.16500
O301        O  0.28000647  0.28947490  0.32097287    -0.59500
H302        H  0.29978633  0.30244917  0.37828580     0.15000
H303        H  0.29540163  0.33874195  0.48313206     0.46900
H304        H  0.22353707  0.19878184  0.42533551     0.42200
H305        H  0.29970730  0.29064671  0.31210041     0.45700
H306        H  0.30606714  0.21743349  0.43798215     0.37200
C307        C  0.62734991  0.95775913  0.72188353    -0.27100
C308        C  0.62129205  0.97585273  0.74367231     0.02500
C309        C  0.62594602  0.00627862  0.73530131     0.30600
C310        C  0.63599933  0.01803791  0.70533123    -0.18900
C311        C  0.64147062  0.99980001  0.68309095    -0.28300
C312        C  0.63738268  0.96949036  0.69174990     0.44600
C313        C  0.60853961  0.96210345  0.77458958     0.05800
O314        O  0.62156494  0.02503196  0.75659477    -0.56800
H315        H  0.63950894  0.04165163  0.69958397     0.18800
O316        O  0.64236217  0.95081429  0.67089339    -0.63500
H317        H  0.62369308  0.93419173  0.72811437     0.17200
C318        C  0.57715910  0.95451513  0.78317912     0.29500
C319        C  0.56459105  0.93985025  0.81175253    -0.24400
C320        C  0.58292546  0.93250940  0.83228006    -0.23700
C321        C  0.61482668  0.94114454  0.82404968     0.40900
C322        C  0.62724329  0.95548989  0.79520173    -0.26100
O323        O  0.55822004  0.96049621  0.76338646    -0.58000
H324        H  0.54009887  0.93356288  0.81756647     0.16500
O325        O  0.63340865  0.93401132  0.84316305    -0.59500
H326        H  0.65142903  0.96120410  0.78876903     0.15000
H327        H  0.66486256  0.95565247  0.67459870     0.46900
H328        H  0.54777782  0.94139747  0.74962663     0.42200
H329        H  0.64819669  0.95456674  0.85381464     0.45700
H330        H  0.60142174  0.02473988  0.75020596     0.37200
C331        C  0.68209610  0.00940003  0.44993254    -0.27100
C332        C  0.69560614  0.03788163  0.43249014     0.02500
C333        C  0.70842394  0.06774941  0.44753822     0.30600
C334        C  0.70728210  0.06888525  0.47983998    -0.18900
C335        C  0.69371393  0.04038824  0.49758592    -0.28300
C336        C  0.68105240  0.01043619  0.48228813     0.44600
C337        C  0.69683449  0.03617238  0.39854640     0.05800
O338        O  0.72158082  0.09587966  0.43080545    -0.56800
H339        H  0.71684790  0.09215949  0.49099354     0.18800
O340        O  0.66611008  0.98200096  0.49852177    -0.63500
H341        H  0.67208471  0.98628262  0.43836793     0.17200
C342        C  0.72270247  0.03528013  0.38428925     0.29500
C343        C  0.72309449  0.03239547  0.35214834    -0.24400
C344        C  0.69765666  0.03006030  0.33367172    -0.23700
C345        C  0.67183173  0.03129481  0.34815819     0.40900
C346        C  0.67173754  0.03461995  0.38041010    -0.26100
O347        O  0.74715710  0.03609164  0.40171128    -0.58000
H348        H  0.74306083  0.03111509  0.34180209     0.16500
O349        O  0.64644161  0.02892806  0.33119199    -0.59500
H350        H  0.65170955  0.03530229  0.39137722     0.15000
H351        H  0.68258459  0.97521303  0.50063479     0.46900
H352        H  0.76277991  0.05933968  0.40483591     0.42200
H353        H  0.62966975  0.00577942  0.33210786     0.45700
H354        H  0.74468448  0.10246043  0.42843829     0.37200
C355        C  0.64457518  0.92617340  0.10736917    -0.27100
C356        C  0.62458109  0.93584428  0.09261697     0.02500
C357        C  0.61747050  0.95766056  0.10780239     0.30600
C358        C  0.63038811  0.96957607  0.13715220    -0.18900
C359        C  0.65093282  0.96044707  0.15171266    -0.28300
C360        C  0.65762169  0.93816962  0.13668056     0.44600
C361        C  0.61055476  0.92271941  0.06171979     0.05800
O362        O  0.59826775  0.96788795  0.09389922    -0.56800
H363        H  0.62493887  0.98664373  0.14819124     0.18800
O364        O  0.67670680  0.92773609  0.15045945    -0.63500
H365        H  0.64977386  0.90894768  0.09629389     0.17200
C366        C  0.63017259  0.92644980  0.03591522     0.29500
C367        C  0.61618370  0.91631166  0.00648519    -0.24400
C368        C  0.58260258  0.90141814  0.00260324    -0.23700
C369        C  0.56301932  0.89678293  0.02864235     0.40900
C370        C  0.57700750  0.90735630  0.05781047    -0.26100
O371        O  0.66306153  0.94120203  0.03900152    -0.58000
H372        H  0.63156966  0.91992462  0.98672970     0.16500
O373        O  0.53016698  0.88277600  0.02572036    -0.59500
H374        H  0.56156919  0.90394449  0.07747405     0.15000
H375        H  0.66193082  0.90950448  0.16402503     0.46900
H376        H  0.66805920  0.92336296  0.03927599     0.42200
H377        H  0.52613461  0.90088242  0.02127922     0.45700
H378        H  0.61305877  0.98653390  0.08090843     0.37200
C379        C  0.37130353  0.91070027  0.00135062    -0.27100
C380        C  0.40478236  0.92272681  0.99896091     0.02500
C381        C  0.42572571  0.95094427  0.01543164     0.30600
C382        C  0.41358836  0.96746398  0.03242270    -0.18900
C383        C  0.38029205  0.95658359  0.03387914    -0.28300
C384        C  0.35901713  0.92745502  0.01852689     0.44600
C385        C  0.41876600  0.90803116  0.97775429     0.05800
O386        O  0.45848091  0.96319087  0.01439648    -0.56800
H387        H  0.43067919  0.98944711  0.04413713     0.18800
O388        O  0.32634479  0.91555672  0.01943260    -0.63500
H389        H  0.35473185  0.88900718  0.98893686     0.17200
C390        C  0.41411736  0.87671600  0.98212888     0.29500
C391        C  0.43310811  0.86668499  0.96556511    -0.24400
C392        C  0.45671570  0.88745478  0.94424564    -0.23700
C393        C  0.45922435  0.91773301  0.93825292     0.40900
C394        C  0.44035999  0.92754949  0.95471600    -0.26100
O395        O  0.39285823  0.85666145  0.00405753    -0.58000
H396        H  0.43044978  0.84326294  0.97057722     0.16500
O397        O  0.48077852  0.93853526  0.91689143    -0.59500
H398        H  0.44380076  0.95142447  0.95046929     0.15000
H399        H  0.32138093  0.92430607  0.00066470     0.46900
H400        H  0.37282747  0.84229110  0.99246402     0.42200
H401        H  0.49964285  0.95439745  0.92916168     0.45700
H402        H  0.46321575  0.95201987  0.03128138     0.37200
C403        C  0.24120362  0.04335841  0.15019353    -0.27100
C404        C  0.25240967  0.07670546  0.15028060     0.02500
C405        C  0.28064732  0.09723619  0.13378603     0.30600
C406        C  0.29793665  0.08467288  0.11865774    -0.18900
C407        C  0.28747890  0.05140035  0.11916368    -0.28300
C408        C  0.25825929  0.03059965  0.13449545     0.44600
C409        C  0.23636420  0.09050375  0.16957191     0.05800
O410        O  0.29251362  0.12993071  0.13369500    -0.56800
H411        H  0.32010975  0.10130166  0.10693031     0.18800
O412        O  0.24711811  0.99808418  0.13585464    -0.63500
H413        H  0.21953493  0.02724689  0.16289440     0.17200
C414        C  0.21555793  0.10027999  0.15646914     0.29500
C415        C  0.20305708  0.11584185  0.17482823    -0.24400
C416        C  0.21192111  0.12302681  0.20618666    -0.23700
C417        C  0.23250420  0.11276280  0.21926576     0.40900
C418        C  0.24427502  0.09651644  0.20108085    -0.26100
O419        O  0.20785871  0.09531864  0.12559126    -0.58000
H420        H  0.18779637  0.12388153  0.16399259     0.16500
O421        O  0.24243857  0.11963870  0.24949486    -0.59500
H422        H  0.26065437  0.08959210  0.21138379     0.15000
H423        H  0.23038435  0.98854878  0.11938705     0.46900
H424        H  0.22151436  0.11659604  0.11553385     0.42200
H425        H  0.22615616  0.10094519  0.26157484     0.45700
H426        H  0.28315275  0.13419445  0.11496520     0.37200
C427        C  0.40814930  0.04547969  0.28578817    -0.27100
C428        C  0.41327309  0.02398745  0.26777145     0.02500
C429        C  0.41673479  0.99966296  0.28274843     0.30600
C430        C  0.41117677  0.99476258  0.31464665    -0.18900
C431        C  0.40201141  0.01372765  0.33207335    -0.28300
C432        C  0.40278332  0.04067331  0.31777614     0.44600
C433        C  0.40988823  0.02415748  0.23354517     0.05800
O434        O  0.42479234  0.98017334  0.26615295    -0.56800
H435        H  0.41215315  0.97471448  0.32530581     0.18800
O436        O  0.39622175  0.06119531  0.33429558    -0.63500
H437        H  0.40605980  0.06475010  0.27474858     0.17200
C438        C  0.38667665  0.99608271  0.21825226     0.29500
C439        C  0.38035532  0.99709712  0.18690134    -0.24400
C440        C  0.39568946  0.02610872  0.17015047    -0.23700
C441        C  0.41948972  0.05419607  0.18509370     0.40900
C442        C  0.42656640  0.05299971  0.21655001    -0.26100
O443        O  0.36827999  0.96787787  0.23416206    -0.58000
H444        H  0.36194343  0.97514648  0.17610338     0.16500
O445        O  0.43508351  0.08308200  0.16964696    -0.59500
H446        H  0.44424522  0.07489654  0.22799172     0.15000
H447        H  0.41764396  0.07959807  0.33993821     0.46900
H448        H  0.34945805  0.96924186  0.24186880     0.42200
H449        H  0.42298931  0.09433864  0.17486866     0.45700
H450        H  0.40693378  0.95775559  0.26931936     0.37200
C451        C  0.47303521  0.96951384  0.50084372    -0.27100
C452        C  0.49449597  0.00145242  0.51004930     0.02500
C453        C  0.48750462  0.02581236  0.50176892     0.30600
C454        C  0.45963208  0.01816073  0.48472761    -0.18900
C455        C  0.43813443  0.98632113  0.47525871    -0.28300
C456        C  0.44511423  0.96185529  0.48355190     0.44600
C457        C  0.52520220  0.00954697  0.52626948     0.05800
O458        O  0.50893207  0.05753149  0.50837760    -0.56800
H459        H  0.45523701  0.03760638  0.47844166     0.18800
O460        O  0.42498419  0.93047449  0.47490037    -0.63500
H461        H  0.47813217  0.95046147  0.50683903     0.17200
C462        C  0.53454524  0.02742574  0.55412825     0.29500
C463        C  0.56452556  0.03620717  0.56778663    -0.24400
C464        C  0.58512939  0.02654159  0.55455854    -0.23700
C465        C  0.57573304  0.00855843  0.52682154     0.40900
C466        C  0.54604733  0.00017564  0.51300303    -0.26100
O467        O  0.51432730  0.03595414  0.56849448    -0.58000
H468        H  0.57122775  0.04971893  0.58924871     0.16500
O469        O  0.59566399  0.99943954  0.51272761    -0.59500
H470        H  0.53952857  0.98676133  0.49147884     0.15000
H471        H  0.43475488  0.92742019  0.45586708     0.46900
H472        H  0.50121741  0.01794224  0.58292379     0.42200
H473        H  0.60966910  0.01764493  0.49883202     0.45700
H474        H  0.49777367  0.06424409  0.52351826     0.37200
C475        C  0.36330507  0.21620567  0.65401488    -0.27100
C476        C  0.33217605  0.18927856  0.65184034     0.02500
C477        C  0.31011697  0.18966867  0.63048668     0.30600
C478        C  0.31890824  0.21707644  0.61235630    -0.18900
C479        C  0.34981892  0.24431302  0.61483845    -0.28300
C480        C  0.37221125  0.24364719  0.63570482     0.44600
C481        C  0.32289727  0.16072112  0.67171182     0.05800
O482        O  0.27977089  0.16348095  0.62741032    -0.56800
H483        H  0.30131094  0.21721742  0.59655859     0.18800
O484        O  0.40187568  0.27047140  0.64010702    -0.63500
H485        H  0.38043782  0.21622278  0.67052720     0.17200
C486        C  0.33899045  0.14300098  0.66904795     0.29500
C487        C  0.33004765  0.11605841  0.68785229    -0.24400
C488        C  0.30455555  0.10579160  0.70922184    -0.23700
C489        C  0.28804041  0.12325221  0.71151750     0.40900
C490        C  0.29732838  0.15058507  0.69286328    -0.26100
O491        O  0.36306341  0.15143705  0.64763706    -0.58000
H492        H  0.34276437  0.10272345  0.68515442     0.16500
O493        O  0.26284810  0.11384851  0.73175199    -0.59500
H494        H  0.28460318  0.16397224  0.69493594     0.15000
H495        H  0.41670726  0.26742433  0.62634631     0.46900
H496        H  0.35180244  0.14123397  0.62800088     0.42200
H497        H  0.27246076  0.12712009  0.75058414     0.45700
H498        H  0.28242833  0.14837250  0.61356768     0.37200
C499        C  0.27996841  0.97339002  0.54416899    -0.27100
C500        C  0.30185719  0.99868443  0.56311908     0.02500
C501        C  0.33015484  0.02398797  0.54985417     0.30600
C502        C  0.33752477  0.02228860  0.51879669    -0.18900
C503        C  0.31686305  0.99556325  0.50068585    -0.28300
C504        C  0.28720845  0.97186043  0.51311599     0.44600
C505        C  0.29644764  0.99711713  0.59702525     0.05800
O506        O  0.35159033  0.04961197  0.56750144    -0.56800
H507        H  0.36044246  0.04068830  0.50955882     0.18800
O508        O  0.26598175  0.94605099  0.49555107    -0.63500
H509        H  0.25806126  0.95378289  0.55383960     0.17200
C510        C  0.26709608  0.99197379  0.60954883     0.29500
C511        C  0.26330542  0.99159922  0.64170747    -0.24400
C512        C  0.28841673  0.99612077  0.66188365    -0.23700
C513        C  0.31738429  0.00021967  0.64924344     0.40900
C514        C  0.32107897  0.00045831  0.61713399    -0.26100
O515        O  0.24276258  0.98926240  0.59059017    -0.58000
H516        H  0.24089308  0.98869412  0.65079654     0.16500
O517        O  0.34293701  0.00580381  0.66787500    -0.59500
H518        H  0.34356481  0.00371210  0.60786658     0.15000
H519        H  0.25351499  0.95393498  0.48355894     0.46900
H520        H  0.22563681  0.96629812  0.59186350     0.42200
H521        H  0.34070915  0.98425632  0.67145228     0.45700
H522        H  0.34327980  0.06488073  0.56737743     0.37200
C523        C  0.34368242  0.07988161  0.94760087    -0.27100
C524        C  0.37130883  0.08675378  0.93054859     0.02500
C525        C  0.39935797  0.09199871  0.94623214     0.30600
C526        C  0.39838873  0.08684862  0.97831936    -0.18900
C527        C  0.36938226  0.07578549  0.99462799    -0.28300
C528        C  0.34254157  0.07434578  0.97943512     0.44600
C529        C  0.36785407  0.08175824  0.89670038     0.05800
O530        O  0.42719541  0.10059197  0.93010313    -0.56800
H531        H  0.41940255  0.08860720  0.98979522     0.18800
O532        O  0.31419640  0.06492952  0.99496573    -0.63500
H533        H  0.32199721  0.07603731  0.93579451     0.17200
C534        C  0.36679966  0.05415564  0.88382193     0.29500
C535        C  0.35507104  0.04441340  0.85373065    -0.24400
C536        C  0.34353761  0.06146766  0.83649137    -0.23700
C537        C  0.34715247  0.09057101  0.84838110     0.40900
C538        C  0.35915440  0.10047818  0.87839326    -0.26100
O539        O  0.37448970  0.03496212  0.90142041    -0.58000
H540        H  0.35246701  0.02201877  0.84493743     0.16500
O541        O  0.33837629  0.10909122  0.83102984    -0.59500
H542        H  0.35993944  0.12177918  0.88802088     0.15000
H543        H  0.31762147  0.08432619  0.00644837     0.46900
H544        H  0.35437360  0.01979799  0.91219580     0.42200
H545        H  0.31720330  0.10455670  0.83935469     0.45700
H546        H  0.42954755  0.08110959  0.92994986     0.37200
C547        C  0.00629402  0.61130491  0.76176924    -0.27100
C548        C  0.97805082  0.61167225  0.75349868     0.02500
C549        C  0.96421613  0.62332541  0.77510302     0.30600
C550        C  0.97839465  0.63409698  0.80435701    -0.18900
C551        C  0.00663573  0.63367843  0.81282625    -0.28300
C552        C  0.02046476  0.62194886  0.79107507     0.44600
C553        C  0.96252705  0.59891528  0.72279768     0.05800
O554        O  0.93684083  0.62445491  0.76777942    -0.56800
H555        H  0.96726699  0.64302592  0.82039829     0.18800
O556        O  0.04786017  0.62073675  0.79807447    -0.63500
H557        H  0.01710167  0.60210064  0.74564809     0.17200
C558        C  0.97940461  0.61124065  0.69479042     0.29500
C559        C  0.96360835  0.59960994  0.66626747    -0.24400
C560        C  0.93104704  0.57517053  0.66498830    -0.23700
C561        C  0.91452588  0.56220963  0.69313252     0.40900
C562        C  0.93023551  0.57410462  0.72154934    -0.26100
O563        O  0.01088912  0.63572073  0.69504358    -0.58000
H564        H  0.97687736  0.61003226  0.64507963     0.16500
O565        O  0.88289505  0.53807296  0.69328512    -0.59500
H566        H  0.91702123  0.56392324  0.74282105     0.15000
H567        H  0.04010474  0.59851090  0.80581721     0.46900
H568        H  0.02384080  0.62531632  0.68999287     0.42200
H569        H  0.87011883  0.54925853  0.69521042     0.45700
H570        H  0.94463486  0.64602258  0.75828316     0.37200
C571        C  0.16378563  0.81218100  0.84262947    -0.27100
C572        C  0.14970799  0.83172508  0.83833343     0.02500
C573        C  0.11757287  0.81974068  0.84795169     0.30600
C574        C  0.10024246  0.78893445  0.86148208    -0.18900
C575        C  0.11421561  0.76922009  0.86575070    -0.28300
C576        C  0.14641880  0.78130375  0.85604402     0.44600
C577        C  0.16850807  0.86388439  0.82273786     0.05800
O578        O  0.10224668  0.83711890  0.84247740    -0.56800
H579        H  0.07544142  0.78028594  0.86820837     0.18800
O580        O  0.16125710  0.76321320  0.85942208    -0.63500
H581        H  0.18845625  0.82087610  0.83538162     0.17200
C582        C  0.17280860  0.89263242  0.83640594     0.29500
C583        C  0.19173705  0.92254662  0.82162861    -0.24400
C584        C  0.20760448  0.92460807  0.79368050    -0.23700
C585        C  0.20282495  0.89587270  0.77973320     0.40900
C586        C  0.18343945  0.86598473  0.79415341    -0.26100
O587        O  0.15997212  0.89201872  0.86492195    -0.58000
H588        H  0.19546903  0.94435741  0.83294232     0.16500
O589        O  0.21743544  0.89675345  0.75215329    -0.59500
H590        H  0.18034160  0.84429616  0.78308069     0.15000
H591        H  0.15831034  0.75220860  0.83922237     0.46900
H592        H  0.17661690  0.89417318  0.88007221     0.42200
H593        H  0.20210933  0.89552974  0.73590811     0.45700
H594        H  0.09837641  0.84347445  0.86323754     0.37200
C595        C  0.06520110  0.68734091  0.05186942    -0.27100
C596        C  0.04892670  0.70240832  0.06410172     0.02500
C597        C  0.03411844  0.71419380  0.04356064     0.30600
C598        C  0.03527402  0.71024563  0.01139672    -0.18900
C599        C  0.05165871  0.69516447  0.99919563    -0.28300
C600        C  0.06667319  0.68368245  0.01987971     0.44600
C601        C  0.04795609  0.70585861  0.09828799     0.05800
O602        O  0.01835038  0.72946532  0.05468881    -0.56800
H603        H  0.02354691  0.71918532  0.99598333     0.18800
O604        O  0.08246419  0.66827286  0.00914769    -0.63500
H605        H  0.07700673  0.67844758  0.06724343     0.17200
C606        C  0.03558684  0.67875244  0.11803626     0.29500
C607        C  0.03498741  0.68259972  0.15023102    -0.24400
C608        C  0.04660273  0.71332617  0.16332152    -0.23700
C609        C  0.05986518  0.74049240  0.14350610     0.40900
C610        C  0.06032187  0.73659606  0.11138689    -0.26100
O611        O  0.02231094  0.64825408  0.10591407    -0.58000
H612        H  0.02425400  0.66133529  0.16484121     0.16500
O613        O  0.07202768  0.77103463  0.15518094    -0.59500
H614        H  0.07048041  0.75773659  0.09660875     0.15000
H615        H  0.06570927  0.64512226  0.00793373     0.46900
H616        H  0.03833949  0.64129274  0.10990738     0.42200
H617        H  0.09473981  0.77804040  0.16074300     0.45700
H618        H  0.99579654  0.71207475  0.05809884     0.37200
C619        C  0.92356934  0.60909247  0.43702031    -0.27100
C620        C  0.95673818  0.63119091  0.43664375     0.02500
C621        C  0.97414594  0.63919753  0.46467383     0.30600
C622        C  0.95842592  0.62450120  0.49241223    -0.18900
C623        C  0.92524662  0.60176496  0.49273375    -0.28300
C624        C  0.90778616  0.59451898  0.46462567     0.44600
C625        C  0.97236921  0.64622665  0.40683865     0.05800
O626        O  0.00657499  0.66100313  0.46513914    -0.56800
H627        H  0.97238902  0.63056579  0.51362485     0.18800
O628        O  0.87537260  0.57272484  0.46360319    -0.63500
H629        H  0.90971611  0.60323621  0.41573951     0.17200
C630        C  0.97028554  0.62714227  0.38113385     0.29500
C631        C  0.98202545  0.64157406  0.35219047    -0.24400
C632        C  0.99538710  0.67496263  0.34832509    -0.23700
C633        C  0.99891838  0.69418833  0.37448099     0.40900
C634        C  0.98738987  0.67977509  0.40337745    -0.26100
O635        O  0.95698592  0.59438282  0.38422091    -0.58000
H636        H  0.97956533  0.62646263  0.33253163     0.16500
O637        O  0.01313653  0.72708738  0.37201582    -0.59500
H638        H  0.98924555  0.69477134  0.42294217     0.15000
H639        H  0.86460532  0.58582129  0.46574031     0.46900
H640        H  0.93531600  0.58492305  0.37447295     0.42200
H641        H  0.03665246  0.73523912  0.37417542     0.45700
H642        H  0.01727694  0.64809965  0.46125570     0.37200
C643        C  0.16830099  0.80663465  0.31971991    -0.27100
C644        C  0.17206103  0.83466476  0.33407111     0.02500
C645        C  0.14631297  0.84125172  0.33179502     0.30600
C646        C  0.11812645  0.82053849  0.31510910    -0.18900
C647        C  0.11439928  0.79245719  0.30082830    -0.28300
C648        C  0.13995433  0.78562689  0.30357959     0.44600
C649        C  0.20329130  0.85742929  0.35004446     0.05800
O650        O  0.14817929  0.86769563  0.34615337    -0.56800
H651        H  0.09884877  0.82622687  0.31387469     0.18800
O652        O  0.13753623  0.75825365  0.29081506    -0.63500
H653        H  0.18770412  0.80112680  0.32047283     0.17200
C654        C  0.21910168  0.84649862  0.37046474     0.29500
C655        C  0.24886760  0.86857799  0.38417950    -0.24400
C656        C  0.26343275  0.90184799  0.37819363    -0.23700
C657        C  0.24748965  0.91267290  0.35791372     0.40900
C658        C  0.21810488  0.89068334  0.34400876    -0.26100
O659        O  0.20498536  0.81446906  0.37827297    -0.58000
H660        H  0.26031780  0.85962095  0.39992205     0.16500
O661        O  0.26048065  0.94483091  0.35117619    -0.59500
H662        H  0.20710442  0.89980336  0.32791752     0.15000
H663        H  0.14773240  0.76492381  0.27013202     0.46900
H664        H  0.21862197  0.80663572  0.36866834     0.42200
H665        H  0.27492557  0.94878882  0.33332345     0.45700
H666        H  0.14008979  0.86039256  0.36747227     0.37200
C667        C  0.88928005  0.43685626  0.49196200    -0.27100
C668        C  0.90471603  0.42345434  0.50936962     0.02500
C669        C  0.90732735  0.42835582  0.54167939     0.30600
C670        C  0.89665826  0.44784821  0.55576734    -0.18900
C671        C  0.88273792  0.46268716  0.53831081    -0.28300
C672        C  0.87824909  0.45621584  0.50615866     0.44600
C673        C  0.92116786  0.40743492  0.49382577     0.05800
O674        O  0.92155509  0.41517367  0.55963189    -0.56800
H675        H  0.90031938  0.45225164  0.58044884     0.18800
O676        O  0.86583951  0.47100240  0.48793256    -0.63500
H677        H  0.88726739  0.43371033  0.46706183     0.17200
C678        C  0.90426987  0.37880068  0.47640207     0.29500
C679        C  0.92077923  0.36391258  0.46345557    -0.24400
C680        C  0.95446238  0.37769402  0.46671743    -0.23700
C681        C  0.97126148  0.40671374  0.48375899     0.40900
C682        C  0.95466639  0.42098516  0.49722608    -0.26100
O683        O  0.87150557  0.36462919  0.47271276    -0.58000
H684        H  0.90725081  0.34183182  0.45037091     0.16500
O685        O  0.00392808  0.42090704  0.48837385    -0.59500
H686        H  0.96819035  0.44301527  0.51041434     0.15000
H687        H  0.84278248  0.45462708  0.48496023     0.46900
H688        H  0.86841646  0.37196590  0.45209115     0.42200
H689        H  0.01370307  0.43892548  0.47320423     0.45700
H690        H  0.90352273  0.39434264  0.56702398     0.37200
C691        C  0.07933375  0.20427062  0.32193349    -0.27100
C692        C  0.07685858  0.23026219  0.30967870     0.02500
C693        C  0.09178858  0.24340224  0.28101108     0.30600
C694        C  0.11058256  0.23226982  0.26633533    -0.18900
C695        C  0.11513087  0.20790845  0.27966738    -0.28300
C696        C  0.09826558  0.19310352  0.30722665     0.44600
C697        C  0.06323117  0.24677614  0.32883871     0.05800
O698        O  0.08975573  0.26854789  0.26799499    -0.56800
H699        H  0.12296623  0.24392757  0.24509419     0.18800
O700        O  0.10253003  0.16989176  0.32163212    -0.63500
H701        H  0.06834147  0.19402129  0.34406858     0.17200
C702        C  0.03114666  0.23104576  0.33976573     0.29500
C703        C  0.02002932  0.24772466  0.35857984    -0.24400
C704        C  0.04058979  0.28023359  0.36696843    -0.23700
C705        C  0.07275614  0.29564706  0.35587992     0.40900
C706        C  0.08354419  0.27909043  0.33705875    -0.26100
O707        O  0.01041543  0.19952111  0.33200018    -0.58000
H708        H  0.99525575  0.23520494  0.36650662     0.16500
O709        O  0.09413600  0.32718751  0.36304077    -0.59500
H710        H  0.10835963  0.29158729  0.32918454     0.15000
H711        H  0.08565702  0.14913082  0.31274758     0.46900
H712        H  0.99958440  0.20052804  0.31273133     0.42200
H713        H  0.10586785  0.32624287  0.38164698     0.45700
H714        H  0.06879351  0.25838383  0.25685678     0.37200
C715        C  0.19629786  0.29953492  0.87995724    -0.27100
C716        C  0.19108703  0.31839602  0.85830984     0.02500
C717        C  0.21570000  0.35070304  0.85371661     0.30600
C718        C  0.24485061  0.36347191  0.87041835    -0.18900
C719        C  0.25029738  0.34435057  0.89165906    -0.28300
C720        C  0.22539191  0.31216518  0.89650897     0.44600
C721        C  0.15951736  0.30475270  0.84159795     0.05800
O722        O  0.21171985  0.36985855  0.83249621    -0.56800
H723        H  0.26362133  0.38805821  0.86597351     0.18800
O724        O  0.22916549  0.29265036  0.91744674    -0.63500
H725        H  0.17753358  0.27493872  0.88437021     0.17200
C726        C  0.14686724  0.27615751  0.82384469     0.29500
C727        C  0.11797508  0.26531299  0.80690740    -0.24400
C728        C  0.10109448  0.28242726  0.80774072    -0.23700
C729        C  0.11271132  0.30964853  0.82738022     0.40900
C730        C  0.14168004  0.32070615  0.84362729    -0.26100
O731        O  0.16343666  0.25964585  0.82157359    -0.58000
H732        H  0.10935373  0.24411802  0.79242573     0.16500
O733        O  0.09603165  0.32595735  0.83081639    -0.59500
H734        H  0.15029297  0.34198702  0.85800353     0.15000
H735        H  0.22348933  0.29801960  0.93780116     0.46900
H736        H  0.15184169  0.24063542  0.83536739     0.42200
H737        H  0.07894210  0.31330179  0.84625095     0.45700
H738        H  0.22023381  0.36650704  0.81273772     0.37200
C739        C  0.08482484  0.31737904  0.61835367    -0.27100
C740        C  0.07037939  0.33381420  0.60481642     0.02500
C741        C  0.05203145  0.34280155  0.62358461     0.30600
C742        C  0.04639230  0.33319610  0.65470916    -0.18900
C743        C  0.05849303  0.31428977  0.66753682    -0.28300
C744        C  0.07902548  0.30760447  0.64942075     0.44600
C745        C  0.07008945  0.33675265  0.57056606     0.05800
O746        O  0.03659780  0.35784669  0.61091553    -0.56800
H747        H  0.03054098  0.33860458  0.66813557     0.18800
O748        O  0.09293026  0.29086556  0.66161479    -0.63500
H749        H  0.09933027  0.31065312  0.60433714     0.17200
C750        C  0.07872919  0.36631838  0.55586034     0.29500
C751        C  0.07182684  0.36687150  0.52435829    -0.24400
C752        C  0.05633584  0.33816578  0.50715731    -0.23700
C753        C  0.05077850  0.30915648  0.52112763     0.40900
C754        C  0.05757876  0.30860633  0.55258982    -0.26100
O755        O  0.09238405  0.39454312  0.57237041    -0.58000
H756        H  0.07671399  0.38949826  0.51391525     0.16500
O757        O  0.03725967  0.28091270  0.50462888    -0.59500
H758        H  0.05127038  0.28571425  0.56337171     0.15000
H759        H  0.07958318  0.26844122  0.65395993     0.46900
H760        H  0.11532617  0.40061614  0.57499958     0.42200
H761        H  0.05576477  0.27869981  0.49741301     0.45700
H762        H  0.04817053  0.38021413  0.61916076     0.37200
C763        C  0.82660706  0.11028151  0.64136785    -0.27100
C764        C  0.83318859  0.13512736  0.66242127     0.02500
C765        C  0.80932590  0.14370857  0.66787490     0.30600
C766        C  0.77962599  0.12780367  0.65229419    -0.18900
C767        C  0.77286182  0.10282901  0.63128800    -0.28300
C768        C  0.79685741  0.09429304  0.62576605     0.44600
C769        C  0.86571309  0.15393348  0.67686496     0.05800
O770        O  0.81482644  0.16767944  0.68853021    -0.56800
H771        H  0.76155969  0.13457686  0.65721019     0.18800
O772        O  0.79168120  0.07057770  0.60491055    -0.63500
H773        H  0.84486019  0.10375171  0.63649230     0.17200
C774        C  0.87807382  0.14010100  0.69790760     0.29500
C775        C  0.90804144  0.15959027  0.71264739    -0.24400
C776        C  0.92589346  0.19296111  0.70673039    -0.23700
C777        C  0.91375310  0.20628790  0.68482026     0.40900
C778        C  0.88418362  0.18685496  0.67009070    -0.26100
O779        O  0.86028250  0.10803816  0.70547707    -0.58000
H780        H  0.91676533  0.14882978  0.72944146     0.16500
O781        O  0.93100128  0.23836050  0.67708205    -0.59500
H782        H  0.87534799  0.19772849  0.65351256     0.15000
H783        H  0.79747983  0.08152036  0.58444181     0.46900
H784        H  0.86848608  0.09706111  0.69188693     0.42200
H785        H  0.92029688  0.24863498  0.68815353     0.45700
H786        H  0.81064094  0.15730084  0.70924701     0.37200
C787        C  0.93942540  0.30246897  0.93880108    -0.27100
C788        C  0.96822721  0.30266086  0.93252561     0.02500
C789        C  0.99017210  0.30822793  0.95673335     0.30600
C790        C  0.98305249  0.31349018  0.98687386    -0.18900
C791        C  0.95401810  0.31301271  0.99335876    -0.28300
C792        C  0.93205648  0.30731205  0.96889068     0.44600
C793        C  0.97439717  0.29573411  0.90076974     0.05800
O794        O  0.01917075  0.30988797  0.95081181    -0.56800
H795        H  0.00049406  0.31828333  0.00510190     0.18800
O796        O  0.90361486  0.30712859  0.97384606    -0.63500
H797        H  0.92234627  0.29809906  0.92030496     0.17200
C798        C  0.97688407  0.26818956  0.89476830     0.29500
C799        C  0.98199210  0.26139686  0.86459158    -0.24400
C800        C  0.98474549  0.28178329  0.83981012    -0.23700
C801        C  0.98203289  0.30935785  0.84583982     0.40900
C802        C  0.97648192  0.31591145  0.87614651    -0.26100
O803        O  0.97421074  0.24763315  0.91827466    -0.58000
H804        H  0.98424609  0.24021106  0.86072413     0.16500
O805        O  0.98438262  0.32981127  0.82237394    -0.59500
H806        H  0.97421253  0.33701668  0.88052597     0.15000
H807        H  0.88732208  0.28416823  0.97745522     0.46900
H808        H  0.95073484  0.23268576  0.92065461     0.42200
H809        H  0.00678977  0.34822894  0.82361114     0.45700
H810        H  0.01779221  0.29045689  0.96083023     0.37200
C811        C  0.02600779  0.40654038  0.28550530    -0.27100
C812        C  0.99862905  0.38513662  0.26847886     0.02500
C813        C  0.97342536  0.35820317  0.28323440     0.30600
C814        C  0.97597747  0.35251048  0.31446852    -0.18900
C815        C  0.00365820  0.37322557  0.33164932    -0.28300
C816        C  0.02866946  0.40076789  0.31699720     0.44600
C817        C  0.99667150  0.38912993  0.23483801     0.05800
O818        O  0.94711876  0.33607499  0.26669285    -0.56800
H819        H  0.95652115  0.33099338  0.32490075     0.18800
O820        O  0.05583437  0.42195836  0.33301745    -0.63500
H821        H  0.04551907  0.42736592  0.27423173     0.17200
C822        C  0.97197410  0.39371795  0.22264784     0.29500
C823        C  0.96450114  0.38861163  0.19120130    -0.24400
C824        C  0.98124335  0.37864618  0.17142543    -0.23700
C825        C  0.00800004  0.37702013  0.18319049     0.40900
C826        C  0.01551756  0.38225031  0.21480734    -0.26100
O827        O  0.95324914  0.40052006  0.24176307    -0.58000
H828        H  0.94419522  0.39061531  0.18274551     0.16500
O829        O  0.02547808  0.36808635  0.16465186    -0.59500
H830        H  0.03459430  0.37863697  0.22407263     0.15000
H831        H  0.07193775  0.41513542  0.32858298     0.46900
H832        H  0.96454097  0.42445413  0.24298634     0.42200
H833        H  0.04286829  0.38848720  0.15587671     0.45700
H834        H  0.92947350  0.34039013  0.27203945     0.37200
C835        C  0.84611482  0.19193803  0.13377984    -0.27100
C836        C  0.82370140  0.19053406  0.15563363     0.02500
C837        C  0.82197529  0.21880545  0.16114781     0.30600
C838        C  0.84217648  0.24745678  0.14478348    -0.18900
C839        C  0.86474866  0.24881370  0.12315399    -0.28300
C840        C  0.86643967  0.22053769  0.11774608     0.44600
C841        C  0.80268049  0.15937453  0.17229174     0.05800
O842        O  0.80227915  0.21928589  0.18397901    -0.56800
H843        H  0.84097582  0.26901801  0.14991270     0.18800
O844        O  0.88801815  0.22051925  0.09686801    -0.63500
H845        H  0.84783439  0.17059620  0.12897700     0.17200
C846        C  0.76883878  0.14553372  0.17319130     0.29500
C847        C  0.74964383  0.11517828  0.18697887    -0.24400
C848        C  0.76333517  0.09767790  0.19999483    -0.23700
C849        C  0.79719598  0.11158840  0.19931452     0.40900
C850        C  0.81646840  0.14210733  0.18573359    -0.26100
O851        O  0.75409449  0.16041612  0.15876232    -0.58000
H852        H  0.72369313  0.10498447  0.18678401     0.16500
O853        O  0.81183539  0.09592189  0.21229735    -0.59500
H854        H  0.84241298  0.15225914  0.18548944     0.15000
H855        H  0.87632422  0.21440858  0.07681192     0.46900
H856        H  0.74306413  0.16550613  0.17546558     0.42200
H857        H  0.81484563  0.08407489  0.19493565     0.45700
H858        H  0.78703537  0.22462623  0.17341464     0.37200
C859        C  0.95537863  0.46685438  0.99974602    -0.27100
C860        C  0.98803560  0.49103706  0.00199743     0.02500
C861        C  0.00817207  0.48623395  0.02260607     0.30600
C862        C  0.99584937  0.45762105  0.03992209    -0.18900
C863        C  0.96340306  0.43306483  0.03722155    -0.28300
C864        C  0.94304589  0.43811460  0.01706156     0.44600
C865        C  0.00036933  0.52159949  0.98371264     0.05800
O866        O  0.03961407  0.50996690  0.02696171    -0.56800
H867        H  0.01199375  0.45463537  0.05550707     0.18800
O868        O  0.91151162  0.41460052  0.01294833    -0.63500
H869        H  0.93943424  0.47008240  0.98409846     0.17200
C870        C  0.02741518  0.53297819  0.96391068     0.29500
C871        C  0.03838590  0.56202096  0.94729649    -0.24400
C872        C  0.02236327  0.57992780  0.94948661    -0.23700
C873        C  0.99542768  0.56847651  0.96952106     0.40900
C874        C  0.98465498  0.53966360  0.98610376    -0.26100
O875        O  0.04293245  0.51559714  0.96009250    -0.58000
H876        H  0.05907855  0.57018678  0.93219503     0.16500
O877        O  0.97947973  0.58543640  0.97347177    -0.59500
H878        H  0.96404332  0.53157953  0.00132056     0.15000
H879        H  0.89891063  0.42065535  0.02685714     0.46900
H880        H  0.03040050  0.49936984  0.94393101     0.42200
H881        H  0.99138035  0.60114302  0.99016909     0.45700
H882        H  0.05295725  0.50119190  0.01837638     0.37200
C883        C  0.83359450  0.67948878  0.15145493    -0.27100
C884        C  0.83565326  0.65711206  0.17114640     0.02500
C885        C  0.80884277  0.62546655  0.17261989     0.30600
C886        C  0.78117458  0.61680950  0.15435601    -0.18900
C887        C  0.77924655  0.63927949  0.13470390    -0.28300
C888        C  0.80595075  0.67095583  0.13352669     0.44600
C889        C  0.86599802  0.66750463  0.18964362     0.05800
O890        O  0.80857284  0.60349396  0.19333144    -0.56800
H891        H  0.76073620  0.59263670  0.15636374     0.18800
O892        O  0.80535377  0.69403347  0.11503034    -0.63500
H893        H  0.85374643  0.70386063  0.14971695     0.17200
C894        C  0.88190892  0.64930535  0.18986595     0.29500
C895        C  0.91137108  0.66073275  0.20564070    -0.24400
C896        C  0.92622341  0.69064372  0.22107265    -0.23700
C897        C  0.91041636  0.70890834  0.22087611     0.40900
C898        C  0.88063442  0.69727863  0.20547096    -0.26100
O899        O  0.87028136  0.62163004  0.17262183    -0.58000
H900        H  0.92321047  0.64641888  0.20478642     0.16500
O901        O  0.92402007  0.73839801  0.23514506    -0.59500
H902        H  0.86906429  0.71185496  0.20561044     0.15000
H903        H  0.81508402  0.69290980  0.09513862     0.46900
H904        H  0.86560790  0.60408568  0.18769098     0.42200
H905        H  0.91578366  0.73377581  0.25672027     0.45700
H906        H  0.80571267  0.58485859  0.18071034     0.37200
C907        C  0.54699845  0.49108578  0.04140500    -0.27100
C908        C  0.53047325  0.50356412  0.02412224     0.02500
C909        C  0.54582773  0.53735604  0.02017755     0.30600
C910        C  0.57637768  0.55762468  0.03319332    -0.18900
C911        C  0.59316128  0.54521638  0.04994472    -0.28300
C912        C  0.57800270  0.51145181  0.05395187     0.44600
C913        C  0.49805045  0.48155413  0.00929690     0.05800
O914        O  0.53157738  0.55100333  0.00291274    -0.56800
H915        H  0.58727936  0.58338885  0.02954531     0.18800
O916        O  0.59312860  0.49798599  0.07010249    -0.63500
H917        H  0.53580192  0.46537445  0.04540952     0.17200
C918        C  0.49249822  0.45411343  0.99215462     0.29500
C919        C  0.46296441  0.43523618  0.97665668    -0.24400
C920        C  0.43803131  0.44286640  0.97750667    -0.23700
C921        C  0.44324034  0.46993573  0.99510377     0.40900
C922        C  0.47271356  0.48867681  0.01093715    -0.26100
O923        O  0.51643197  0.44641047  0.98895042    -0.58000
H924        H  0.45981269  0.41461307  0.96345552     0.16500
O925        O  0.41944254  0.47788682  0.99775676    -0.59500
H926        H  0.47575598  0.50900884  0.02455644     0.15000
H927        H  0.58656661  0.49743712  0.09202838     0.46900
H928        H  0.50952417  0.42680990  0.00177723     0.42200
H929        H  0.42384480  0.49380510  0.98109564     0.45700
H930        H  0.53840732  0.55080767  0.98127934     0.37200
C931        C  0.67292070  0.87182363  0.31376157    -0.27100
C932        C  0.63960199  0.84950328  0.31390458     0.02500
C933        C  0.61866365  0.85791324  0.29871408     0.30600
C934        C  0.63108440  0.88777813  0.28359630    -0.18900
C935        C  0.66449811  0.90974354  0.28274815    -0.28300
C936        C  0.68541092  0.90147890  0.29819823     0.44600
C937        C  0.62730330  0.81758107  0.32965867     0.05800
O938        O  0.58602815  0.83699506  0.29811160    -0.56800
H939        H  0.61440113  0.89357078  0.27211974     0.18800
O940        O  0.71795041  0.92268980  0.29938282    -0.63500
H941        H  0.68943803  0.86635848  0.32602179     0.17200
C942        C  0.64155953  0.79844275  0.32379589     0.29500
C943        C  0.63158819  0.76974328  0.34029250    -0.24400
C944        C  0.60702098  0.75905500  0.36264348    -0.23700
C945        C  0.59170141  0.77736201  0.36764015     0.40900
C946        C  0.60193933  0.80641757  0.35131899    -0.26100
O947        O  0.66460721  0.80711207  0.30121222    -0.58000
H948        H  0.64329096  0.75574942  0.33554498     0.16500
O949        O  0.56748618  0.76771220  0.38905746    -0.59500
H950        H  0.59063224  0.82071865  0.35628023     0.15000
H951        H  0.72733272  0.91591848  0.28239809     0.46900
H952        H  0.68512458  0.81367939  0.31239932     0.42200
H953        H  0.57862986  0.77690855  0.40908747     0.45700
H954        H  0.58239344  0.82269388  0.28011811     0.37200
C955        C  0.62453232  0.60652368  0.22213748    -0.27100
C956        C  0.64092317  0.63586320  0.23797369     0.02500
C957        C  0.66447114  0.66348965  0.22232252     0.30600
C958        C  0.67163039  0.66122195  0.19125196    -0.18900
C959        C  0.65556127  0.63153043  0.17567628    -0.28300
C960        C  0.63158491  0.60420302  0.19132252     0.44600
C961        C  0.63230973  0.63715040  0.27053985     0.05800
O962        O  0.68072938  0.69261903  0.23723445    -0.56800
H963        H  0.69039871  0.68236955  0.17967600     0.18800
O964        O  0.61454118  0.57507724  0.17652164    -0.63500
H965        H  0.60638551  0.58508657  0.23386572     0.17200
C966        C  0.60006211  0.62650776  0.27859068     0.29500
C967        C  0.59217175  0.62869642  0.30915104    -0.24400
C968        C  0.61602538  0.64156668  0.33224588    -0.23700
C969        C  0.64807041  0.65035492  0.32458148     0.40900
C970        C  0.65603650  0.64831074  0.29377618    -0.26100
O971        O  0.57641596  0.61599682  0.25632976    -0.58000
H972        H  0.56734326  0.62159446  0.31438902     0.16500
O973        O  0.67200160  0.66233073  0.34654825    -0.59500
H974        H  0.68081679  0.65574206  0.28794411     0.15000
H975        H  0.62414739  0.56199821  0.18383209     0.46900
H976        H  0.56303775  0.59242755  0.25958068     0.42200
H977        H  0.67280009  0.64323513  0.35457360     0.45700
H978        H  0.66746366  0.70303416  0.23392045     0.37200
C979        C  0.46716928  0.46353892  0.49515933    -0.27100
C980        C  0.46202188  0.48916273  0.50300920     0.02500
C981        C  0.43868148  0.48391758  0.52561805     0.30600
C982        C  0.42137569  0.45369179  0.54017516    -0.18900
C983        C  0.42714035  0.42828030  0.53284665    -0.28300
C984        C  0.45019325  0.43347538  0.50993387     0.44600
C985        C  0.48223726  0.52140218  0.48827445     0.05800
O986        O  0.43286194  0.50823886  0.53394255    -0.56800
H987        H  0.40359714  0.45024701  0.55753267     0.18800
O988        O  0.45525935  0.40890584  0.50071672    -0.63500
H989        H  0.48448448  0.46684386  0.47734583     0.17200
C990        C  0.51608496  0.53649541  0.48968856     0.29500
C991        C  0.53518637  0.56602851  0.47474968    -0.24400
C992        C  0.52134449  0.58141647  0.45792980    -0.23700
C993        C  0.48735678  0.56658806  0.45691443     0.40900
C994        C  0.46811134  0.53683950  0.47200054    -0.26100
O995        O  0.53077328  0.52300772  0.50658120    -0.58000
H996        H  0.56115890  0.57691185  0.47646291     0.12900
O997        O  0.47264058  0.58040137  0.44065431    -0.59500
H998        H  0.44208571  0.52551394  0.47051431     0.15000
H999        H  0.47559389  0.41318779  0.51108351     0.46900
H1000       H  0.53934263  0.51392229  0.49107366     0.42200
H1001       H  0.47000330  0.59454049  0.45575361     0.45700
H1002       H  0.44815489  0.51971144  0.55111746     0.37200
C1003       C  0.62926716  0.72925487  0.55413847    -0.27100
C1004       C  0.65231984  0.72168851  0.56502514     0.02500
C1005       C  0.66837052  0.71204315  0.54409462     0.30600
C1006       C  0.65969987  0.70801252  0.51282362    -0.18900
C1007       C  0.63496381  0.71339290  0.50213408    -0.28300
C1008       C  0.62073205  0.72551335  0.52286661     0.44600
C1009       C  0.65581960  0.71904406  0.59853785     0.05800
O1010       O  0.69024445  0.70348964  0.55448710    -0.56800
H1011       H  0.67094990  0.69868328  0.49737985     0.18800
O1012       O  0.59702880  0.73185441  0.51333899    -0.63500
H1013       H  0.61681055  0.73666442  0.57022404     0.17200
C1014       C  0.68477593  0.73942618  0.61404221     0.29500
C1015       C  0.68830373  0.73379330  0.64523774    -0.24400
C1016       C  0.66311387  0.70782445  0.66120849    -0.23700
C1017       C  0.63357061  0.68830174  0.64573681     0.40900
C1018       C  0.63013800  0.69415089  0.61469307    -0.26100
O1019       O  0.70995395  0.76433188  0.59868455    -0.58000
H1020       H  0.71112809  0.74918769  0.65663069     0.16500
O1021       O  0.60793370  0.66329168  0.66056054    -0.59500
H1022       H  0.60766586  0.67844314  0.60284172     0.15000
H1023       H  0.60866393  0.75391468  0.50448426     0.46900
H1024       H  0.70652308  0.78302623  0.60121730     0.42200
H1025       H  0.60861936  0.64363425  0.65444387     0.45700
H1026       H  0.71163866  0.72315973  0.55202069     0.37200
C1027       C  0.71407563  0.68387023  0.95181722    -0.27100
C1028       C  0.73518394  0.67710236  0.93510422     0.02500
C1029       C  0.75146834  0.66342340  0.95064018     0.30600
C1030       C  0.74516640  0.65524248  0.98208566    -0.18900
C1031       C  0.72279732  0.66058443  0.99836758    -0.28300
C1032       C  0.70777958  0.67571799  0.98310442     0.44600
C1033       C  0.73695807  0.68165394  0.90104347     0.05800
O1034       O  0.77377501  0.65842050  0.93534956    -0.56800
H1035       H  0.75728313  0.64402282  0.99357561     0.18800
O1036       O  0.68555053  0.68107439  0.99800354    -0.63500
H1037       H  0.70109601  0.69408728  0.94014697     0.17200
C1038       C  0.72783938  0.65520358  0.88105805     0.29500
C1039       C  0.72158621  0.65770868  0.84987389    -0.24400
C1040       C  0.72410712  0.68625110  0.83809686    -0.23700
C1041       C  0.73575798  0.71351704  0.85735102     0.40900
C1042       C  0.74196757  0.71102865  0.88864969    -0.26100
O1043       O  0.72242992  0.62600801  0.89214948    -0.58000
H1044       H  0.71291860  0.63660277  0.83522908     0.16500
O1045       O  0.73788197  0.74158423  0.84674459    -0.59500
H1046       H  0.74879934  0.73152272  0.90374123     0.15000
H1047       H  0.66447794  0.66134853  0.99439309     0.46900
H1048       H  0.69949128  0.61440156  0.89864084     0.42200
H1049       H  0.76014580  0.75450377  0.83871456     0.45700
H1050       H  0.76530245  0.63475788  0.93595073     0.37200
C1051       C  0.72033628  0.58561130  0.67554926    -0.27100
C1052       C  0.75279824  0.60473527  0.66623001     0.02500
C1053       C  0.76974193  0.63707673  0.67657115     0.30600
C1054       C  0.75417830  0.64990561  0.69420097    -0.18900
C1055       C  0.72168373  0.63106517  0.70307136    -0.28300
C1056       C  0.70498300  0.59832901  0.69405541     0.44600
C1057       C  0.76903381  0.59131079  0.64588705     0.05800
O1058       O  0.80180508  0.65655706  0.66980335    -0.56800
H1059       H  0.76793559  0.67499465  0.70103347     0.18800
O1060       O  0.67371060  0.57843363  0.70318620    -0.63500
H1061       H  0.70643778  0.56080237  0.66800747     0.17200
C1062       C  0.76576930  0.56056821  0.65106300     0.29500
C1063       C  0.78376213  0.55020898  0.63346630    -0.24400
C1064       C  0.80571514  0.57008013  0.61070918    -0.23700
C1065       C  0.80792711  0.60018513  0.60457953     0.40900
C1066       C  0.78929582  0.61012477  0.62152208    -0.26100
O1067       O  0.74691210  0.54134935  0.67476444    -0.58000
H1068       H  0.78170903  0.52710850  0.63886156     0.16500
O1069       O  0.82831670  0.62026198  0.58210009    -0.59500
H1070       H  0.79135759  0.63318056  0.61592351     0.15000
H1071       H  0.66025383  0.57909945  0.68601020     0.46900
H1072       H  0.72807046  0.52300452  0.66453563     0.42200
H1073       H  0.84770184  0.63660776  0.59339005     0.45700
H1074       H  0.81358469  0.65522131  0.68819447     0.37200
C1075       C  0.60309272  0.75507045  0.80160937    -0.27100
C1076       C  0.58161296  0.73748855  0.82550087     0.02500
C1077       C  0.57687841  0.70668932  0.83296676     0.30600
C1078       C  0.59389591  0.69416875  0.81692483    -0.18900
C1079       C  0.61648567  0.71240912  0.79390540    -0.28300
C1080       C  0.62053605  0.74295164  0.78603750     0.44600
C1081       C  0.56603672  0.75270246  0.84343797     0.05800
O1082       O  0.55543815  0.68857318  0.85569898    -0.56800
H1083       H  0.59025824  0.67064814  0.82329160     0.18800
O1084       O  0.64185029  0.76147946  0.76338180    -0.63500
H1085       H  0.60705578  0.77880034  0.79558559     0.17200
C1086       C  0.57496822  0.76231160  0.87437611     0.29500
C1087       C  0.56377961  0.78077826  0.88962978    -0.24400
C1088       C  0.54348677  0.79009590  0.87457028    -0.23700
C1089       C  0.53316603  0.77892730  0.84408927     0.40900
C1090       C  0.54476134  0.76080306  0.82870042    -0.26100
O1091       O  0.59595569  0.75515265  0.88944581    -0.58000
H1092       H  0.57215029  0.78894911  0.91298510     0.16500
O1093       O  0.51346823  0.78730642  0.82831976    -0.59500
H1094       H  0.53779133  0.75376150  0.80483795     0.15000
H1095       H  0.63010403  0.75295392  0.74358167     0.46900
H1096       H  0.61773726  0.77322698  0.88456573     0.42200
H1097       H  0.49119455  0.76961153  0.83257526     0.45700
H1098       H  0.56887067  0.68996916  0.87377946     0.37200
loop_ 
_geom_bond_atom_site_label_1 
_geom_bond_atom_site_label_2 
_geom_bond_distance 
_geom_bond_site_symmetry_2 
_ccdc_geom_bond_type 
O1            C4   1.274       .  A
O1           Cd6   2.371       .  S
C2           O11   1.279       .  A
C2            O7   1.274       .  A
C2         C1016   1.477       .  S
O3            C9   1.273       .  A
O3           Cd6   2.417       .  S
C4           O12   1.278       .  A
C4         C1040   1.472       .  S
C5           O10   1.274       .  A
C5            O8   1.281       .  A
C5         C1055   1.500       .  S
Cd6          O13   2.495       .  S
Cd6          O12   2.435       .  S
Cd6          O11   2.418       .  S
Cd6           O7   2.366       .  S
Cd6          O10   2.415       .  S
Cd6           O8   2.503       .  S
C9           O13   1.281       .  A
C9         C1079   1.492       .  S
O14          C17   1.271       .  A
O14         Cd19   2.458       .  S
C15          O24   1.267       .  A
C15          O20   1.271       .  A
C15        C1007   1.475       .  S
O16          C22   1.276       .  A
O16         Cd19   2.529       .  S
C17          O25   1.268       .  A
C17         C968   1.476       .  S
C18          O23   1.276       .  A
C18          O21   1.266       .  A
C18         C992   1.495       .  S
Cd19         O26   2.413       .  S
Cd19         O25   2.377       .  S
Cd19         O24   2.401       .  S
Cd19         O20   2.435       .  S
Cd19         O23   2.529       .  S
Cd19         O21   2.417       .  S
C22          O26   1.265       .  A
C22         C944   1.488       .  S
O27          C30   1.274       .  A
O27         Cd32   2.485       .  S
C28          O37   1.270       .  A
C28          O33   1.273       .  A
C28        C1031   1.477   1_554  S
O29          C35   1.278       .  A
O29         Cd32   2.522       .  S
C30          O38   1.265       .  A
C30         C959   1.473       .  S
C31          O36   1.278       .  A
C31          O34   1.268       .  A
C31         C911   1.505       .  S
Cd32         O39   2.438       .  S
Cd32         O38   2.363       .  S
Cd32         O37   2.419       .  S
Cd32         O33   2.445       .  S
Cd32         O36   2.546       .  S
Cd32         O34   2.453       .  S
C35          O39   1.267       .  A
C35         C887   1.497       .  S
O40          C43   1.274       .  A
O40         Cd45   2.468       .  S
C41          O50   1.268       .  A
C41          O46   1.275       .  A
C41         C791   1.480   1_554  S
O42          C48   1.276       .  A
O42         Cd45   2.516       .  S
C43          O51   1.268       .  A
C43         C824   1.481       .  S
C44          O49   1.278       .  A
C44          O47   1.267       .  A
C44         C863   1.494       .  S
Cd45         O52   2.445       .  S
Cd45         O51   2.386       .  S
Cd45         O50   2.387       .  S
Cd45         O46   2.450       .  S
Cd45         O49   2.519       .  S
Cd45         O47   2.414       .  S
C48          O52   1.268       .  A
C48         C839   1.494       .  S
O53          C56   1.272   1_455  A
O53         Cd58   2.465       .  S
C54          O63   1.268       .  A
C54          O59   1.271       .  A
C54         C743   1.484       .  S
O55          C61   1.278       .  A
O55         Cd58   2.542       .  S
C56          O64   1.268       .  A
C56         C800   1.481       .  S
C57          O62   1.276       .  A
C57          O60   1.265       .  A
C57         C776   1.492       .  S
Cd58         O65   2.388       .  S
Cd58         O64   2.405   1_455  S
Cd58         O63   2.436       .  S
Cd58         O59   2.471       .  S
Cd58         O62   2.543   1_455  S
Cd58         O60   2.418   1_455  S
C61          O65   1.265       .  A
C61         C728   1.493       .  S
O66          C69   1.274       .  A
O66         Cd71   2.410       .  S
C67          O76   1.278       .  A
C67          O72   1.273   1_455  A
C67         C815   1.481       .  S
O68          C74   1.272   1_455  A
O68         Cd71   2.439       .  S
C69          O77   1.277       .  A
C69         C752   1.479       .  S
C70          O75   1.272       .  A
C70          O73   1.282       .  A
C70         C704   1.506       .  S
Cd71         O78   2.532   1_455  S
Cd71         O77   2.448       .  S
Cd71         O76   2.447       .  S
Cd71         O72   2.365   1_455  S
Cd71         O75   2.417       .  S
Cd71         O73   2.536       .  S
C74          O78   1.281       .  A
C74         C680   1.504       .  S
O79          C82   1.276       .  A
O79         Cd84   2.479       .  S
C80          O89   1.268       .  A
C80          O85   1.276       .  A
C80         C632   1.480   1_455  S
O81          C87   1.278       .  A
O81         Cd84   2.516       .  S
C82          O90   1.270       .  A
C82         C608   1.487       .  S
C83          O88   1.278       .  A
C83          O86   1.268       .  A
C83         C896   1.497       .  S
Cd84         O91   2.436       .  S
Cd84         O90   2.416       .  S
Cd84         O89   2.399       .  S
Cd84         O85   2.475       .  S
Cd84         O88   2.522   1_455  S
Cd84         O86   2.424   1_455  S
C87          O91   1.269       .  A
C87         C647   1.501       .  S
O92          C95   1.278       .  A
O92         Cd97   2.473       .  S
C93         O102   1.273       .  A
C93          O98   1.280       .  A
C93         C599   1.486       .  S
O94         C100   1.282       .  A
O94         Cd97   2.515       .  S
C95         O103   1.272       .  A
C95         C551   1.496       .  S
C96         O101   1.280       .  A
C96          O99   1.272       .  A
C96         C575   1.501       .  S
Cd97        O104   2.409       .  S
Cd97        O103   2.445       .  S
Cd97        O102   2.401       .  S
Cd97         O98   2.477       .  S
Cd97        O101   2.507       .  S
Cd97         O99   2.439       .  S
C100        O104   1.272       .  A
C100        C872   1.498       .  S
O105        C108   1.270       .  A
O105       Cd110   2.483       .  S
C106        O115   1.265       .  A
C106        O111   1.269       .  A
C106        C623   1.486       .  S
O107        C113   1.268       .  A
O107       Cd110   2.545       .  S
C108        O116   1.267       .  A
C108        C560   1.491       .  S
C109        O114   1.271       .  A
C109        O112   1.264       .  A
C109       C1064   1.500       .  S
Cd110       O117   2.488       .  S
Cd110       O116   2.460       .  S
Cd110       O115   2.438       .  S
Cd110       O111   2.481       .  S
Cd110       O114   2.536       .  S
Cd110       O112   2.484       .  S
C113        O117   1.264       .  A
C113        C671   1.499       .  S
O118        C121   1.273       .  A
O118       Cd123   2.482       .  S
C119        O128   1.269       .  A
C119        O124   1.276       .  A
C119        C512   1.479   1_545  S
O120        C126   1.275       .  A
O120       Cd123   2.512   1_565  S
C121        O129   1.267       .  A
C121        C536   1.476       .  S
C122        O127   1.279       .  A
C122        O125   1.267       .  A
C122        C488   1.482       .  S
Cd123       O130   2.431   1_545  S
Cd123       O129   2.404       .  S
Cd123       O128   2.394       .  S
Cd123       O124   2.439       .  S
Cd123       O127   2.490       .  S
Cd123       O125   2.377       .  S
C126        O130   1.267       .  A
C126        C584   1.487       .  S
O131        C134   1.273   1_545  A
O131       Cd136   2.485   1_545  S
C132        O141   1.267   1_545  A
C132        O137   1.273       .  A
C132        C431   1.486       .  S
O133        C139   1.275       .  A
O133       Cd136   2.518       .  S
C134        O142   1.266       .  A
C134        C503   1.471       .  S
C135        O140   1.275       .  A
C135        O138   1.267       .  A
C135        C656   1.497       .  S
Cd136       O143   2.410   1_565  S
Cd136       O142   2.387       .  S
Cd136       O141   2.415       .  S
Cd136       O137   2.490   1_565  S
Cd136       O140   2.523       .  S
Cd136       O138   2.438       .  S
C139        O143   1.266   1_565  A
C139        C455   1.492       .  S
O144        C147   1.269       .  A
O144       Cd149   2.385       .  S
C145        O154   1.274       .  A
C145        O150   1.269       .  A
C145        C440   1.483       .  S
O146        C152   1.268   1_545  A
O146       Cd149   2.425       .  S
C147        O155   1.274       .  A
C147        C527   1.473   1_554  S
C148        O153   1.268       .  A
C148        O151   1.279       .  A
C148        C407   1.499       .  S
Cd149       O156   2.558   1_545  S
Cd149       O155   2.469       .  S
Cd149       O154   2.484       .  S
Cd149       O150   2.383       .  S
Cd149       O153   2.423       .  S
Cd149       O151   2.540       .  S
C152        O156   1.278       .  A
C152        C383   1.503       .  S
O157        C160   1.278       .  A
O157       Cd162   2.456   1_565  S
C158        O167   1.271       .  A
C158        O163   1.279       .  A
C158        C344   1.483       .  S
O159        C165   1.281       .  A
O159       Cd162   2.479   1_565  S
C160        O168   1.272       .  A
C160        C359   1.483       .  S
C161        O166   1.279       .  A
C161        O164   1.272       .  A
C161        C848   1.495       .  S
Cd162       O169   2.412   1_545  S
Cd162       O168   2.406   1_545  S
Cd162       O167   2.379       .  S
Cd162       O163   2.450       .  S
Cd162       O166   2.494       .  S
Cd162       O164   2.426       .  S
C165        O169   1.272       .  A
C165        C935   1.491       .  S
O170        C173   1.276   1_565  A
O170       Cd175   2.464   1_565  S
C171        O180   1.272       .  A
C171        O176   1.278       .  A
C171        C335   1.479       .  S
O172        C178   1.280       .  A
O172       Cd175   2.486       .  S
C173        O181   1.270       .  A
C173        C311   1.483   1_545  S
C174        O179   1.278       .  A
C174        O177   1.270       .  A
C174        C767   1.490       .  S
Cd175       O182   2.393       .  S
Cd175       O181   2.385       .  S
Cd175       O180   2.394       .  S
Cd175       O176   2.431       .  S
Cd175       O179   2.485       .  S
Cd175       O177   2.421       .  S
C178        O182   1.269       .  A
C178        C464   1.480       .  S
O183        C186   1.268       .  A
O183       Cd188   2.487       .  S
C184        O193   1.266       .  A
C184        O189   1.267       .  A
C184        C320   1.483       .  S
O185        C191   1.268       .  A
O185       Cd188   2.524       .  S
C186        O194   1.265       .  A
C186        C368   1.477   1_556  S
C187        O192   1.271       .  A
C187        O190   1.264       .  A
C187        C392   1.501       .  S
Cd188       O195   2.475       .  S
Cd188       O194   2.432       .  S
Cd188       O193   2.453       .  S
Cd188       O189   2.482       .  S
Cd188       O192   2.555       .  S
Cd188       O190   2.450       .  S
C191        O195   1.263       .  A
C191       C1088   1.495       .  S
O196        C199   1.269       .  A
O196       Cd201   2.494       .  S
C197        O206   1.265       .  A
C197        O202   1.268       .  A
C197        C272   1.478       .  S
O198        C204   1.268       .  A
O198       Cd201   2.525       .  S
C199        O207   1.266       .  A
C199        C296   1.491       .  S
C200        O205   1.270       .  A
C200        O203   1.264       .  A
C200        C695   1.497       .  S
Cd201       O208   2.480       .  S
Cd201       O207   2.461       .  S
Cd201       O206   2.452       .  S
Cd201       O202   2.480       .  S
Cd201       O205   2.542       .  S
Cd201       O203   2.467       .  S
C204        O208   1.263       .  A
C204        C416   1.496       .  S
O209        C212   1.277       .  A
O209       Cd214   2.466       .  S
C210        O219   1.271       .  A
C210        O215   1.276       .  A
C210        C239   1.489       .  S
O211        C217   1.280       .  A
O211       Cd214   2.526       .  S
C212        O220   1.270       .  A
C212        C263   1.482   1_556  S
C213        O218   1.278       .  A
C213        O216   1.271       .  A
C213        C920   1.506       .  S
Cd214       O221   2.412       .  S
Cd214       O220   2.402       .  S
Cd214       O219   2.410       .  S
Cd214       O215   2.480       .  S
Cd214       O218   2.533       .  S
Cd214       O216   2.458       .  S
C217        O221   1.268       .  A
C217        C719   1.494       .  S
O222        C225   1.279       .  A
O222       Cd227   2.465       .  S
C223        O232   1.270       .  A
C223        O228   1.278       .  A
C223        C287   1.488       .  S
O224        C230   1.277       .  A
O224       Cd227   2.476       .  S
C225        O233   1.271       .  A
C225        C248   1.487       .  S
C226        O231   1.280       .  A
C226        O229   1.271       .  A
C226        C479   1.477       .  S
Cd227       O234   2.434       .  S
Cd227       O233   2.409       .  S
Cd227       O232   2.412       .  S
Cd227       O228   2.484       .  S
Cd227       O231   2.462       .  S
Cd227       O229   2.386       .  S
C230        O234   1.270       .  A
C230        C983   1.489       .  S
C235        C236   1.404       .  A
C235        C240   1.406       .  A
C235        H245   1.083       .  S
C236        C241   1.484       .  S
C236        C237   1.405       .  A
C237        C238   1.398       .  A
C237        O242   1.372       .  S
C238        C239   1.408       .  A
C238        H243   1.083       .  S
C239        C240   1.414       .  A
C240        O244   1.371       .  S
C241        C246   1.405       .  A
C241        C250   1.404       .  A
O242        H258   0.992       .  S
O244        H255   0.993       .  S
C246        C247   1.402       .  A
C246        O251   1.372       .  S
C247        C248   1.410       .  A
C247        H252   1.083       .  S
C248        C249   1.410       .  A
C249        C250   1.402       .  A
C249        O253   1.371       .  S
C250        H254   1.084       .  S
O251        H256   0.991       .  S
O253        H257   0.994       .  S
C259        C260   1.400       .  A
C259        C264   1.399       .  A
C259        H269   1.084       .  S
C260        C265   1.480       .  S
C260        C261   1.408       .  A
C261        C262   1.404       .  A
C261        O266   1.372       .  S
C262        C263   1.405       .  A
C262        H267   1.083       .  S
C263        C264   1.413       .  A
C264        O268   1.372       .  S
C265        C270   1.408       .  A
C265        C274   1.402       .  A
O266        H282   0.994       .  S
O268        H279   0.992       .  S
C270        C271   1.402       .  A
C270        O275   1.371       .  S
C271        C272   1.405       .  A
C271        H276   1.084       .  S
C272        C273   1.409       .  A
C273        C274   1.401       .  A
C273        O277   1.372       .  S
C274        H278   1.084       .  S
O275        H280   0.996       .  S
O277        H281   0.991       .  S
C283        C284   1.404       .  A
C283        C288   1.406       .  A
C283        H293   1.084       .  S
C284        C289   1.485       .  S
C284        C285   1.406       .  A
C285        C286   1.401       .  A
C285        O290   1.372       .  S
C286        C287   1.408       .  A
C286        H291   1.083       .  S
C287        C288   1.411       .  A
C288        O292   1.371       .  S
C289        C294   1.406       .  A
C289        C298   1.403       .  A
O290        H306   0.992       .  S
O292        H303   0.991       .  S
C294        C295   1.402       .  A
C294        O299   1.371       .  S
C295        C296   1.408       .  A
C295        H300   1.083       .  S
C296        C297   1.414       .  A
C297        C298   1.405       .  A
C297        O301   1.371       .  S
C298        H302   1.084       .  S
O299        H304   0.991       .  S
O301        H305   0.992       .  S
C307        C308   1.404       .  A
C307        C312   1.403       .  A
C307        H317   1.084       .  S
C308        C313   1.479       .  S
C308        C309   1.404   1_565  A
C309        C310   1.397       .  A
C309        O314   1.372       .  S
C310        C311   1.408   1_545  A
C310        H315   1.083       .  S
C311        C312   1.411       .  A
C312        O316   1.371       .  S
C313        C318   1.406       .  A
C313        C322   1.402       .  A
O314        H330   0.994       .  S
O316        H327   0.993       .  S
C318        C319   1.398       .  A
C318        O323   1.372       .  S
C319        C320   1.405       .  A
C319        H324   1.083       .  S
C320        C321   1.413       .  A
C321        C322   1.403       .  A
C321        O325   1.371       .  S
C322        H326   1.084       .  S
O323        H328   0.992       .  S
O325        H329   0.993       .  S
C331        C332   1.400       .  A
C331        C336   1.400       .  A
C331        H341   1.084   1_545  S
C332        C337   1.471       .  S
C332        C333   1.403       .  A
C333        C334   1.398       .  A
C333        O338   1.372       .  S
C334        C335   1.408       .  A
C334        H339   1.083       .  S
C335        C336   1.411       .  A
C336        O340   1.371   1_545  S
C337        C342   1.402       .  A
C337        C346   1.401       .  A
O338        H354   0.991       .  S
O340        H351   0.993       .  S
C342        C343   1.396       .  A
C342        O347   1.372       .  S
C343        C344   1.409       .  A
C343        H348   1.083       .  S
C344        C345   1.412       .  A
C345        C346   1.402       .  A
C345        O349   1.371       .  S
C346        H350   1.084       .  S
O347        H352   0.993       .  S
O349        H353   0.993       .  S
C355        C356   1.402       .  A
C355        C360   1.401       .  A
C355        H365   1.083       .  S
C356        C361   1.484       .  S
C356        C357   1.410       .  A
C357        C358   1.400       .  A
C357        O362   1.372       .  S
C358        C359   1.403       .  A
C358        H363   1.083       .  S
C359        C360   1.414       .  A
C360        O364   1.372       .  S
C361        C366   1.411       .  A
C361        C370   1.402       .  A
O362        H378   0.991       .  S
O364        H375   0.994       .  S
C366        C367   1.404       .  A
C366        O371   1.372       .  S
C367        C368   1.404       .  A
C367        H372   1.084   1_554  S
C368        C369   1.409       .  A
C369        C370   1.397       .  A
C369        O373   1.372       .  S
C370        H374   1.084       .  S
O371        H376   0.993       .  S
O373        H377   0.994       .  S
C379        C380   1.409   1_554  A
C379        C384   1.417       .  A
C379        H389   1.083   1_554  S
C380        C385   1.500       .  S
C380        C381   1.409   1_556  A
C381        C382   1.399       .  A
C381        O386   1.372       .  S
C382        C383   1.408       .  A
C382        H387   1.083       .  S
C383        C384   1.416       .  A
C384        O388   1.371       .  S
C385        C390   1.412       .  A
C385        C394   1.403       .  A
O386        H402   0.992       .  S
O388        H399   0.992       .  S
C390        C391   1.415       .  A
C390        O395   1.371   1_556  S
C391        C392   1.411       .  A
C391        H396   1.083       .  S
C392        C393   1.414       .  A
C393        C394   1.401       .  A
C393        O397   1.372       .  S
C394        H398   1.084       .  S
O395        H400   0.992   1_554  S
O397        H401   0.994       .  S
C403        C404   1.406       .  A
C403        C408   1.412       .  A
C403        H413   1.083       .  S
C404        C409   1.492       .  S
C404        C405   1.405       .  A
C405        C406   1.403       .  A
C405        O410   1.372       .  S
C406        C407   1.410       .  A
C406        H411   1.083       .  S
C407        C408   1.413       .  A
C408        O412   1.370   1_545  S
C409        C414   1.408       .  A
C409        C418   1.403       .  A
O410        H426   0.992       .  S
O412        H423   0.994       .  S
C414        C415   1.409       .  A
C414        O419   1.371       .  S
C415        C416   1.409       .  A
C415        H420   1.083       .  S
C416        C417   1.415       .  A
C417        C418   1.405       .  A
C417        O421   1.371       .  S
C418        H422   1.084       .  S
O419        H424   0.994       .  S
O421        H425   0.992       .  S
C427        C428   1.405       .  A
C427        C432   1.403       .  A
C427        H437   1.083       .  S
C428        C433   1.486       .  S
C428        C429   1.408   1_545  A
C429        C430   1.400       .  A
C429        O434   1.375       .  S
C430        C431   1.407   1_565  A
C430        H435   1.083       .  S
C431        C432   1.410       .  A
C432        O436   1.371       .  S
C433        C438   1.409   1_545  A
C433        C442   1.407       .  A
O434        H450   0.993       .  S
O436        H447   0.992       .  S
C438        C439   1.392       .  A
C438        O443   1.372       .  S
C439        C440   1.403   1_565  A
C439        H444   1.084       .  S
C440        C441   1.412       .  A
C441        C442   1.406       .  A
C441        O445   1.371       .  S
C442        H446   1.083       .  S
O443        H448   0.992       .  S
O445        H449   0.992       .  S
C451        C452   1.408   1_565  A
C451        C456   1.407       .  A
C451        H461   1.083       .  S
C452        C457   1.491       .  S
C452        C453   1.406       .  A
C453        C454   1.400       .  A
C453        O458   1.373       .  S
C454        C455   1.408   1_545  A
C454        H459   1.083       .  S
C455        C456   1.411       .  A
C456        O460   1.371       .  S
C457        C462   1.414       .  A
C457        C466   1.403       .  A
O458        H474   0.994       .  S
O460        H471   0.992       .  S
C462        C463   1.405       .  A
C462        O467   1.371       .  S
C463        C464   1.402       .  A
C463        H468   1.083       .  S
C464        C465   1.412       .  A
C465        C466   1.400       .  A
C465        O469   1.372   1_545  S
C466        H470   1.084   1_545  S
O467        H472   0.992       .  S
O469        H473   0.993   1_565  S
C475        C476   1.405       .  A
C475        C480   1.403       .  A
C475        H485   1.084       .  S
C476        C481   1.480       .  S
C476        C477   1.405       .  A
C477        C478   1.398       .  A
C477        O482   1.372       .  S
C478        C479   1.405       .  A
C478        H483   1.084       .  S
C479        C480   1.409       .  A
C480        O484   1.371       .  S
C481        C486   1.403       .  A
C481        C490   1.406       .  A
O482        H498   0.994       .  S
O484        H495   0.991       .  S
C486        C487   1.396       .  A
C486        O491   1.372       .  S
C487        C488   1.409       .  A
C487        H492   1.084       .  S
C488        C489   1.408       .  A
C489        C490   1.404       .  A
C489        O493   1.371       .  S
C490        H494   1.083       .  S
O491        H496   0.992       .  S
O493        H497   0.993       .  S
C499        C500   1.403       .  A
C499        C504   1.397       .  A
C499        H509   1.083       .  S
C500        C505   1.482       .  S
C500        C501   1.412   1_565  A
C501        C502   1.400       .  A
C501        O506   1.372       .  S
C502        C503   1.401   1_545  A
C502        H507   1.084       .  S
C503        C504   1.408       .  A
C504        O508   1.372       .  S
C505        C510   1.407       .  A
C505        C514   1.404   1_565  A
O506        H522   0.989       .  S
O508        H519   0.992       .  S
C510        C511   1.400       .  A
C510        O515   1.372       .  S
C511        C512   1.408       .  A
C511        H516   1.083       .  S
C512        C513   1.409   1_565  A
C513        C514   1.397       .  A
C513        O517   1.371       .  S
C514        H518   1.084       .  S
O515        H520   0.992       .  S
O517        H521   0.993   1_545  S
C523        C524   1.402       .  A
C523        C528   1.395       .  A
C523        H533   1.084       .  S
C524        C529   1.477       .  S
C524        C525   1.407       .  A
C525        C526   1.403       .  A
C525        O530   1.372       .  S
C526        C527   1.404       .  A
C526        H531   1.083       .  S
C527        C528   1.410       .  A
C528        O532   1.372       .  S
C529        C534   1.410       .  A
C529        C538   1.401       .  A
O530        H546   0.992       .  S
O532        H543   0.991   1_556  S
C534        C535   1.399       .  A
C534        O539   1.372       .  S
C535        C536   1.401       .  A
C535        H540   1.084       .  S
C536        C537   1.411       .  A
C537        C538   1.400       .  A
C537        O541   1.373       .  S
C538        H542   1.084       .  S
O539        H544   0.987       .  S
O541        H545   0.991       .  S
C547        C548   1.403   1_455  A
C547        C552   1.405       .  A
C547        H557   1.083       .  S
C548        C553   1.493       .  S
C548        C549   1.410       .  A
C549        C550   1.404       .  A
C549        O554   1.371       .  S
C550        C551   1.406   1_655  A
C550        H555   1.083       .  S
C551        C552   1.417       .  A
C552        O556   1.371       .  S
C553        C558   1.410       .  A
C553        C562   1.403       .  A
O554        H570   0.993       .  S
O556        H567   0.992       .  S
C558        C559   1.406       .  A
C558        O563   1.372   1_655  S
C559        C560   1.407       .  A
C559        H564   1.083       .  S
C560        C561   1.414       .  A
C561        C562   1.402       .  A
C561        O565   1.371       .  S
C562        H566   1.084       .  S
O563        H568   0.992       .  S
O565        H569   0.995       .  S
C571        C572   1.408       .  A
C571        C576   1.408       .  A
C571        H581   1.084       .  S
C572        C577   1.499       .  S
C572        C573   1.409       .  A
C573        C574   1.407       .  A
C573        O578   1.373       .  S
C574        C575   1.411       .  A
C574        H579   1.083       .  S
C575        C576   1.412       .  A
C576        O580   1.371       .  S
C577        C582   1.414       .  A
C577        C586   1.405       .  A
O578        H594   0.994       .  S
O580        H591   0.992       .  S
C582        C583   1.408       .  A
C582        O587   1.371       .  S
C583        C584   1.404       .  A
C583        H588   1.083       .  S
C584        C585   1.411       .  A
C585        C586   1.403       .  A
C585        O589   1.372       .  S
C586        H590   1.084       .  S
O587        H592   0.993       .  S
O589        H593   0.993       .  S
C595        C596   1.401       .  A
C595        C600   1.399       .  A
C595        H605   1.084       .  S
C596        C601   1.489       .  S
C596        C597   1.412       .  A
C597        C598   1.407       .  A
C597        O602   1.371       .  S
C598        C599   1.405   1_554  A
C598        H603   1.083   1_554  S
C599        C600   1.414   1_556  A
C600        O604   1.372       .  S
C601        C606   1.411       .  A
C601        C610   1.402       .  A
O602        H618   0.992   1_455  S
O604        H615   0.993       .  S
C606        C607   1.405       .  A
C606        O611   1.372       .  S
C607        C608   1.406       .  A
C607        H612   1.083       .  S
C608        C609   1.414       .  A
C609        C610   1.401       .  A
C609        O613   1.371       .  S
C610        H614   1.084       .  S
O611        H616   0.989       .  S
O613        H617   0.992       .  S
C619        C620   1.401       .  A
C619        C624   1.397       .  A
C619        H629   1.084       .  S
C620        C625   1.482       .  S
C620        C621   1.408       .  A
C621        C622   1.403       .  A
C621        O626   1.372   1_655  S
C622        C623   1.407       .  A
C622        H627   1.083       .  S
C623        C624   1.413       .  A
C624        O628   1.371       .  S
C625        C630   1.410       .  A
C625        C634   1.401       .  A
O626        H642   0.992       .  S
O628        H639   0.993       .  S
C630        C631   1.402       .  A
C630        O635   1.372       .  S
C631        C632   1.403       .  A
C631        H636   1.083       .  S
C632        C633   1.413       .  A
C633        C634   1.399       .  A
C633        O637   1.372   1_655  S
C634        H638   1.084       .  S
O635        H640   0.993       .  S
O637        H641   0.993       .  S
C643        C644   1.405       .  A
C643        C648   1.405       .  A
C643        H653   1.082       .  S
C644        C649   1.506       .  S
C644        C645   1.416       .  A
C645        C646   1.409       .  A
C645        O650   1.371       .  S
C646        C647   1.407       .  A
C646        H651   1.083       .  S
C647        C648   1.416       .  A
C648        O652   1.371       .  S
C649        C654   1.417       .  A
C649        C658   1.405       .  A
O650        H666   0.992       .  S
O652        H663   0.991       .  S
C654        C655   1.412       .  A
C654        O659   1.372       .  S
C655        C656   1.406       .  A
C655        H660   1.083       .  S
C656        C657   1.414       .  A
C657        C658   1.403       .  A
C657        O661   1.372       .  S
C658        H662   1.083       .  S
O659        H664   0.991       .  S
O661        H665   0.989       .  S
C667        C668   1.408       .  A
C667        C672   1.414       .  A
C667        H677   1.083       .  S
C668        C673   1.503       .  S
C668        C669   1.410       .  A
C669        C670   1.405       .  A
C669        O674   1.371       .  S
C670        C671   1.406       .  A
C670        H675   1.083       .  S
C671        C672   1.415       .  A
C672        O676   1.371       .  S
C673        C678   1.412       .  A
C673        C682   1.404       .  A
O674        H690   0.991       .  S
O676        H687   0.992       .  S
C678        C679   1.415       .  A
C678        O683   1.371       .  S
C679        C680   1.410       .  A
C679        H684   1.083       .  S
C680        C681   1.416       .  A
C681        C682   1.405       .  A
C681        O685   1.372   1_655  S
C682        H686   1.084       .  S
O683        H688   0.993       .  S
O685        H689   0.994       .  S
C691        C692   1.407       .  A
C691        C696   1.411       .  A
C691        H701   1.083       .  S
C692        C697   1.499       .  S
C692        C693   1.411       .  A
C693        C694   1.404       .  A
C693        O698   1.372       .  S
C694        C695   1.407       .  A
C694        H699   1.084       .  S
C695        C696   1.414       .  A
C696        O700   1.371       .  S
C697        C702   1.412       .  A
C697        C706   1.401       .  A
O698        H714   0.992       .  S
O700        H711   0.993       .  S
C702        C703   1.415       .  A
C702        O707   1.371       .  S
C703        C704   1.412       .  A
C703        H708   1.083   1_455  S
C704        C705   1.418       .  A
C705        C706   1.401       .  A
C705        O709   1.371       .  S
C706        H710   1.084       .  S
O707        H712   0.992   1_455  S
O709        H713   0.992       .  S
C715        C716   1.402       .  A
C715        C720   1.403       .  A
C715        H725   1.083       .  S
C716        C721   1.496       .  S
C716        C717   1.414       .  A
C717        C718   1.408       .  A
C717        O722   1.372       .  S
C718        C719   1.405       .  A
C718        H723   1.083       .  S
C719        C720   1.416       .  A
C720        O724   1.372       .  S
C721        C726   1.415       .  A
C721        C730   1.401       .  A
O722        H738   0.993       .  S
O724        H735   0.992       .  S
C726        C727   1.412       .  A
C726        O731   1.371       .  S
C727        C728   1.406       .  A
C727        H732   1.083       .  S
C728        C729   1.416       .  A
C729        C730   1.399       .  A
C729        O733   1.372       .  S
C730        H734   1.084       .  S
O731        H736   0.993       .  S
O733        H737   0.993       .  S
C739        C740   1.403       .  A
C739        C744   1.401       .  A
C739        H749   1.084       .  S
C740        C745   1.486       .  S
C740        C741   1.410       .  A
C741        C742   1.402       .  A
C741        O746   1.372       .  S
C742        C743   1.404       .  A
C742        H747   1.083       .  S
C743        C744   1.412       .  A
C744        O748   1.372       .  S
C745        C750   1.409       .  A
C745        C754   1.404       .  A
O746        H762   0.994       .  S
O748        H759   0.993       .  S
C750        C751   1.402       .  A
C750        O755   1.371       .  S
C751        C752   1.405       .  A
C751        H756   1.083       .  S
C752        C753   1.409       .  A
C753        C754   1.399       .  A
C753        O757   1.372       .  S
C754        H758   1.084       .  S
O755        H760   0.991       .  S
O757        H761   0.992       .  S
C763        C764   1.403       .  A
C763        C768   1.405       .  A
C763        H773   1.083       .  S
C764        C769   1.490       .  S
C764        C765   1.411       .  A
C765        C766   1.403       .  A
C765        O770   1.371       .  S
C766        C767   1.404       .  A
C766        H771   1.083       .  S
C767        C768   1.416       .  A
C768        O772   1.372       .  S
C769        C774   1.412       .  A
C769        C778   1.399       .  A
O770        H786   0.993       .  S
O772        H783   0.993       .  S
C774        C775   1.412       .  A
C774        O779   1.371       .  S
C775        C776   1.408       .  A
C775        H780   1.083       .  S
C776        C777   1.413       .  A
C777        C778   1.399       .  A
C777        O781   1.372       .  S
C778        H782   1.084       .  S
O779        H784   0.990       .  S
O781        H785   0.992       .  S
C787        C788   1.399       .  A
C787        C792   1.396       .  A
C787        H797   1.084       .  S
C788        C793   1.476       .  S
C788        C789   1.407       .  A
C789        C790   1.400       .  A
C789        O794   1.372   1_655  S
C790        C791   1.405       .  A
C790        H795   1.083   1_656  S
C791        C792   1.415       .  A
C792        O796   1.372       .  S
C793        C798   1.404       .  A
C793        C802   1.403       .  A
O794        H810   0.995       .  S
O796        H807   0.992       .  S
C798        C799   1.395       .  A
C798        O803   1.372       .  S
C799        C800   1.407       .  A
C799        H804   1.083       .  S
C800        C801   1.411       .  A
C801        C802   1.402       .  A
C801        O805   1.371       .  S
C802        H806   1.084       .  S
O803        H808   0.991       .  S
O805        H809   0.993   1_655  S
C811        C812   1.402   1_455  A
C811        C816   1.405       .  A
C811        H821   1.083       .  S
C812        C817   1.473       .  S
C812        C813   1.404       .  A
C813        C814   1.392       .  A
C813        O818   1.373       .  S
C814        C815   1.406   1_655  A
C814        H819   1.083       .  S
C815        C816   1.413       .  A
C816        O820   1.371       .  S
C817        C822   1.404       .  A
C817        C826   1.402   1_655  A
O818        H834   0.990       .  S
O820        H831   0.993       .  S
C822        C823   1.394       .  A
C822        O827   1.372       .  S
C823        C824   1.407       .  A
C823        H828   1.083       .  S
C824        C825   1.412   1_655  A
C825        C826   1.402       .  A
C825        O829   1.371       .  S
C826        H830   1.084       .  S
O827        H832   0.994       .  S
O829        H833   0.989       .  S
C835        C836   1.405       .  A
C835        C840   1.403       .  A
C835        H845   1.084       .  S
C836        C841   1.501       .  S
C836        C837   1.415       .  A
C837        C838   1.411       .  A
C837        O842   1.373       .  S
C838        C839   1.405       .  A
C838        H843   1.083       .  S
C839        C840   1.413       .  A
C840        O844   1.372       .  S
C841        C846   1.411       .  A
C841        C850   1.410       .  A
O842        H858   0.993       .  S
O844        H855   0.992       .  S
C846        C847   1.405       .  A
C846        O851   1.372       .  S
C847        C848   1.408       .  A
C847        H852   1.083       .  S
C848        C849   1.411       .  A
C849        C850   1.408       .  A
C849        O853   1.371       .  S
C850        H854   1.083       .  S
O851        H856   0.994       .  S
O853        H857   0.993       .  S
C859        C860   1.409   1_556  A
C859        C864   1.409   1_556  A
C859        H869   1.083       .  S
C860        C865   1.498   1_654  S
C860        C861   1.408   1_655  A
C861        C862   1.404   1_455  A
C861        O866   1.372       .  S
C862        C863   1.409       .  A
C862        H867   1.083   1_655  S
C863        C864   1.410       .  A
C864        O868   1.371       .  S
C865        C870   1.415       .  A
C865        C874   1.402   1_455  A
O866        H882   0.994       .  S
O868        H879   0.991       .  S
C870        C871   1.410       .  A
C870        O875   1.371       .  S
C871        C872   1.407       .  A
C871        H876   1.083       .  S
C872        C873   1.417   1_455  A
C873        C874   1.402       .  A
C873        O877   1.372       .  S
C874        H878   1.084   1_556  S
O875        H880   0.993       .  S
O877        H881   0.991       .  S
C883        C884   1.405       .  A
C883        C888   1.404       .  A
C883        H893   1.083       .  S
C884        C889   1.505       .  S
C884        C885   1.416       .  A
C885        C886   1.411       .  A
C885        O890   1.373       .  S
C886        C887   1.405       .  A
C886        H891   1.083       .  S
C887        C888   1.415       .  A
C888        O892   1.372       .  S
C889        C894   1.411       .  A
C889        C898   1.412       .  A
O890        H906   0.995       .  S
O892        H903   0.992       .  S
C894        C895   1.405       .  A
C894        O899   1.373       .  S
C895        C896   1.409       .  A
C895        H900   1.083       .  S
C896        C897   1.410       .  A
C897        C898   1.409       .  A
C897        O901   1.371       .  S
C898        H902   1.083       .  S
O899        H904   0.994       .  S
O901        H905   0.993       .  S
C907        C908   1.413       .  A
C907        C912   1.414       .  A
C907        H917   1.082       .  S
C908        C913   1.514       .  S
C908        C909   1.413       .  A
C909        C910   1.406       .  A
C909        O914   1.371       .  S
C910        C911   1.409       .  A
C910        H915   1.083       .  S
C911        C912   1.412       .  A
C912        O916   1.371       .  S
C913        C918   1.413   1_554  A
C913        C922   1.413       .  A
O914        H930   0.992   1_554  S
O916        H927   0.994       .  S
C918        C919   1.409       .  A
C918        O923   1.372       .  S
C919        C920   1.409       .  A
C919        H924   1.083       .  S
C920        C921   1.413       .  A
C921        C922   1.413   1_556  A
C921        O925   1.371       .  S
C922        H926   1.083       .  S
O923        H928   0.992   1_556  S
O925        H929   0.990       .  S
C931        C932   1.408       .  A
C931        C936   1.404       .  A
C931        H941   1.083       .  S
C932        C937   1.497       .  S
C932        C933   1.410       .  A
C933        C934   1.404       .  A
C933        O938   1.371       .  S
C934        C935   1.409       .  A
C934        H939   1.083       .  S
C935        C936   1.409       .  A
C936        O940   1.371       .  S
C937        C942   1.409       .  A
C937        C946   1.410       .  A
O938        H954   0.992       .  S
O940        H951   0.995       .  S
C942        C943   1.401       .  A
C942        O947   1.373       .  S
C943        C944   1.406       .  A
C943        H948   1.084       .  S
C944        C945   1.409       .  A
C945        C946   1.409       .  A
C945        O949   1.371       .  S
C946        H950   1.083       .  S
O947        H952   0.992       .  S
O949        H953   0.996       .  S
C955        C956   1.399       .  A
C955        C960   1.391       .  A
C955        H965   1.084       .  S
C956        C961   1.476       .  S
C956        C957   1.410       .  A
C957        C958   1.403       .  A
C957        O962   1.372       .  S
C958        C959   1.405       .  A
C958        H963   1.083       .  S
C959        C960   1.409       .  A
C960        O964   1.372       .  S
C961        C966   1.406       .  A
C961        C970   1.404       .  A
O962        H978   0.991       .  S
O964        H975   0.992       .  S
C966        C967   1.392       .  A
C966        O971   1.373       .  S
C967        C968   1.404       .  A
C967        H972   1.083       .  S
C968        C969   1.411       .  A
C969        C970   1.401       .  A
C969        O973   1.371       .  S
C970        H974   1.084       .  S
O971        H976   0.990       .  S
O973        H977   0.993       .  S
C979        C980   1.406       .  A
C979        C984   1.403       .  A
C979        H989   1.083       .  S
C980        C985   1.493       .  S
C980        C981   1.409       .  A
C981        C982   1.406       .  A
C981        O986   1.371       .  S
C982        C983   1.409       .  A
C982        H987   1.083       .  S
C983        C984   1.409       .  A
C984        O988   1.371       .  S
C985        C990   1.407       .  A
C985        C994   1.408       .  A
O986       H1002   0.992       .  S
O988        H999   0.993       .  S
C990        C991   1.399       .  A
C990        O995   1.373       .  S
C991        C992   1.408       .  A
C991        H996   1.083       .  S
C992        C993   1.413       .  A
C993        C994   1.410       .  A
C993        O997   1.371       .  S
C994        H998   1.083       .  S
O995       H1000   0.992       .  S
O997       H1001   0.992       .  S
C1003      C1004   1.399       .  A
C1003      C1008   1.395       .  A
C1003      H1013   1.084       .  S
C1004      C1009   1.468       .  S
C1004      C1005   1.405       .  A
C1005      C1006   1.397       .  A
C1005      O1010   1.372       .  S
C1006      C1007   1.405       .  A
C1006      H1011   1.083       .  S
C1007      C1008   1.413       .  A
C1008      O1012   1.372       .  S
C1009      C1014   1.403       .  A
C1009      C1018   1.399       .  A
O1010      H1026   0.992       .  S
O1012      H1023   0.991       .  S
C1014      C1015   1.399       .  A
C1014      O1019   1.371       .  S
C1015      C1016   1.407       .  A
C1015      H1020   1.083       .  S
C1016      C1017   1.413       .  A
C1017      C1018   1.394       .  A
C1017      O1021   1.372       .  S
C1018      H1022   1.084       .  S
O1019      H1024   0.991       .  S
O1021      H1025   0.992       .  S
C1027      C1028   1.404       .  A
C1027      C1032   1.396       .  A
C1027      H1037   1.084       .  S
C1028      C1033   1.482       .  S
C1028      C1029   1.408       .  A
C1029      C1030   1.403       .  A
C1029      O1034   1.373       .  S
C1030      C1031   1.406       .  A
C1030      H1035   1.084       .  S
C1031      C1032   1.408       .  A
C1032      O1036   1.372       .  S
C1033      C1038   1.410       .  A
C1033      C1042   1.406       .  A
O1034      H1050   0.994       .  S
O1036      H1047   0.991       .  S
C1038      C1039   1.396       .  A
C1038      O1043   1.372       .  S
C1039      C1040   1.402       .  A
C1039      H1044   1.084       .  S
C1040      C1041   1.407       .  A
C1041      C1042   1.400       .  A
C1041      O1045   1.371       .  S
C1042      H1046   1.084       .  S
O1043      H1048   0.992       .  S
O1045      H1049   0.990       .  S
C1051      C1052   1.412       .  A
C1051      C1056   1.412       .  A
C1051      H1061   1.082       .  S
C1052      C1057   1.512       .  S
C1052      C1053   1.414       .  A
C1053      C1054   1.402       .  A
C1053      O1058   1.372       .  S
C1054      C1055   1.407       .  A
C1054      H1059   1.083       .  S
C1055      C1056   1.413       .  A
C1056      O1060   1.371       .  S
C1057      C1062   1.415       .  A
C1057      C1066   1.410       .  A
O1058      H1074   0.992       .  S
O1060      H1071   0.991       .  S
C1062      C1063   1.410       .  A
C1062      O1067   1.371       .  S
C1063      C1064   1.406       .  A
C1063      H1068   1.083       .  S
C1064      C1065   1.413       .  A
C1065      C1066   1.407       .  A
C1065      O1069   1.372       .  S
C1066      H1070   1.083       .  S
O1067      H1072   0.994       .  S
O1069      H1073   0.993       .  S
C1075      C1076   1.402       .  A
C1075      C1080   1.402       .  A
C1075      H1085   1.084       .  S
C1076      C1081   1.492       .  S
C1076      C1077   1.410       .  A
C1077      C1078   1.410       .  A
C1077      O1082   1.372       .  S
C1078      C1079   1.406       .  A
C1078      H1083   1.083       .  S
C1079      C1080   1.414       .  A
C1080      O1084   1.372       .  S
C1081      C1086   1.408       .  A
C1081      C1090   1.405       .  A
O1082      H1098   0.990       .  S
O1084      H1095   0.992       .  S
C1086      C1087   1.404       .  A
C1086      O1091   1.372       .  S
C1087      C1088   1.409       .  A
C1087      H1092   1.083       .  S
C1088      C1089   1.414       .  A
C1089      C1090   1.407       .  A
C1089      O1093   1.371       .  S
C1090      H1094   1.083       .  S
O1091      H1096   0.990       .  S
O1093      H1097   0.993       .  S
