geometry optimzed in LAMMPS
_audit_creation_date              2020-12-01 
_audit_creation_method            'lammps2cif' 
_symmetry_space_group_name_H-M    'P1' 
_symmetry_Int_Tables_number       1 
_symmetry_cell_setting            triclinic 
loop_ 
_symmetry_equiv_pos_as_xyz 
  x,y,z 
_cell_length_a                    91.52794914 
_cell_length_b                    90.86137554338207 
_cell_length_c                    28.18654593523602 
_cell_angle_alpha                 89.96437759273257 
_cell_angle_beta                  89.97058079367311 
_cell_angle_gamma                 90.2026479170865 
loop_ 
_atom_site_label 
_atom_site_type_symbol 
_atom_site_fract_x 
_atom_site_fract_y 
_atom_site_fract_z 
_atom_site_charge 
O1          O  0.83602812  0.22123079  0.03091612    -0.56600
C2          C  0.83157692  0.20944631  0.16247878     0.76000
O3          O  0.81435132  0.18107177  0.02708055    -0.57800
C4          C  0.83836587  0.21629543  0.98969589     0.76000
C5          C  0.85183655  0.17233172  0.08195123     0.78400
Cd6        Cd  0.83226209  0.19683103  0.06846931     1.37500
O7          O  0.84183261  0.21255941  0.13392748    -0.56600
O8          O  0.85673854  0.18485946  0.07013573    -0.55400
C9          C  0.80325305  0.18834410  0.03959445     0.78300
O10         O  0.83818102  0.17126739  0.08722866    -0.57800
O11         O  0.82185795  0.20070017  0.14752288    -0.56300
O12         O  0.83859698  0.20245517  0.98541108    -0.56200
O13         O  0.80551088  0.19933499  0.06621284    -0.55400
O14         O  0.83897644  0.25865722  0.60666662    -0.56600
C15         C  0.83924144  0.26864412  0.48062968     0.76000
O16         O  0.80637675  0.28250503  0.59786241    -0.57800
C17         C  0.83738970  0.26286109  0.64908395     0.76000
C18         C  0.84931959  0.30866874  0.58614099     0.78400
Cd19       Cd  0.83197466  0.28246874  0.56999623     1.37500
O20         O  0.82843868  0.26450232  0.50533304    -0.56600
O21         O  0.85494609  0.29599778  0.58359787    -0.55400
C22         C  0.80120377  0.28896409  0.56189840     0.78300
O23         O  0.83562698  0.30935282  0.58073322    -0.57800
O24         O  0.84684425  0.27906126  0.49736138    -0.56300
O25         O  0.83341251  0.27605185  0.65492700    -0.56200
O26         O  0.81027800  0.29290798  0.53044071    -0.55400
O27         O  0.65237247  0.21500624  0.86734194    -0.56600
C28         C  0.65564914  0.22003981  0.01143260     0.76000
O29         O  0.65874363  0.17655874  0.89658377    -0.57800
C30         C  0.66446534  0.21910814  0.84977442     0.76000
C31         C  0.69162383  0.19070673  0.96518840     0.78400
Cd32       Cd  0.66345507  0.20087345  0.93339795     1.37500
O33         O  0.65903910  0.22504129  0.97108890    -0.56600
O34         O  0.69006702  0.19692746  0.92533712    -0.55400
C35         C  0.64529045  0.17609309  0.90649091     0.78300
O36         O  0.68015469  0.18867373  0.98930320    -0.57800
O37         O  0.65518041  0.20618025  0.01533412    -0.56300
O38         O  0.67589289  0.21480831  0.87074866    -0.56200
O39         O  0.64026384  0.18691540  0.92943987    -0.55400
O40         O  0.66549684  0.26023362  0.38899622    -0.56600
C41         C  0.65538188  0.26937631  0.52028757     0.76000
O42         O  0.68893348  0.28194836  0.40402080    -0.57800
C43         C  0.65968186  0.26484556  0.35110614     0.76000
C44         C  0.64637510  0.31007392  0.41844881     0.78400
Cd45       Cd  0.66347141  0.28373438  0.43242259     1.37500
O46         O  0.64903175  0.26614967  0.48182324    -0.56600
O47         O  0.64083998  0.29856760  0.43636525    -0.55400
C48         C  0.69456663  0.28924847  0.43752140     0.78300
O49         O  0.65979175  0.30951914  0.40808756    -0.57800
O50         O  0.66519004  0.27916802  0.51793764    -0.56300
O51         O  0.65537508  0.27806645  0.35106089    -0.56200
O52         O  0.68582183  0.29450936  0.46781593    -0.55400
O53         O  0.96259855  0.90946541  0.29407102    -0.56600
C54         C  0.96431578  0.90297926  0.43788321     0.76000
O55         O  0.94295857  0.93300876  0.38312332    -0.57800
C56         C  0.95890336  0.89800905  0.27152450     0.76000
C57         C  0.91888370  0.88923641  0.37765108     0.78400
Cd58       Cd  0.94464075  0.90686359  0.35836075     1.37500
O59         O  0.96793062  0.89947501  0.39608318    -0.56600
O60         O  0.93157426  0.88502082  0.38871913    -0.55400
C61         C  0.93761933  0.93771261  0.34464100     0.78300
O62         O  0.91799806  0.90157264  0.35715430    -0.57800
O63         O  0.95175487  0.90855556  0.44293570    -0.56300
O64         O  0.94889832  0.89023422  0.28988105    -0.56200
O65         O  0.93507711  0.92816347  0.31306346    -0.55400
O66         O  0.01284725  0.89440300  0.92168495    -0.56600
C67         C  0.01180368  0.89757151  0.77809022     0.76000
O68         O  0.04946093  0.91856845  0.82914228    -0.57800
C69         C  0.01856861  0.90235179  0.95357016     0.76000
C70         C  0.05151106  0.87664153  0.86790036     0.78400
Cd71       Cd  0.03105214  0.90077707  0.85919423     1.37500
O72         O  0.00695829  0.89800174  0.82007385    -0.56600
O73         O  0.03818769  0.87456243  0.85814740    -0.55400
C74         C  0.04165783  0.92981831  0.83630122     0.78300
O75         O  0.05552460  0.88988103  0.87292459    -0.57800
O76         O  0.02554679  0.89802491  0.77349616    -0.56300
O77         O  0.02997950  0.90936432  0.94204965    -0.56200
O78         O  0.02927678  0.92762677  0.85509589    -0.55400
O79         O  0.97261008  0.06973467  0.24519006    -0.56600
C80         C  0.97130614  0.07321360  0.10875764     0.76000
O81         O  0.93683587  0.05184592  0.22754683    -0.57800
C82         C  0.96583273  0.07570504  0.27928887     0.76000
C83         C  0.93348527  0.09648125  0.16785791     0.78400
Cd84       Cd  0.95183873  0.07142569  0.18865364     1.37500
O85         O  0.97606258  0.07348279  0.15090839    -0.56600
O86         O  0.94645244  0.09769003  0.18260226    -0.55400
C87         C  0.94037843  0.04173325  0.19901506     0.78300
O88         O  0.92850956  0.08350295  0.16373556    -0.57800
O89         O  0.95762786  0.07189342  0.10362051    -0.56300
O90         O  0.95293742  0.07992435  0.27099733    -0.56200
O91         O  0.94831078  0.04551794  0.16442598    -0.55400
O92         O  0.01816799  0.07191056  0.62754704    -0.56600
C93         C  0.01852378  0.07499898  0.76929936     0.76000
O94         O  0.04911794  0.04523848  0.72049496    -0.57800
C95         C  0.02665128  0.06923544  0.59308493     0.76000
C96         C  0.05930137  0.08973714  0.68900022     0.78400
Cd97       Cd  0.03668480  0.06766576  0.68960869     1.37500
O98         O  0.01463595  0.07810960  0.72737422    -0.56600
O99         O  0.04610256  0.09261269  0.69799324    -0.55400
C100        C  0.03896940  0.03657966  0.70763366     0.78300
O101        O  0.06245731  0.07632291  0.68225182    -0.57800
O102        O  0.03085037  0.06890408  0.77410046    -0.56300
O103        O  0.03971168  0.06603871  0.60327795    -0.56200
O104        O  0.02855930  0.04217405  0.68454095    -0.55400
O105        O  0.97620807  0.40452214  0.75307897    -0.56600
C106        C  0.97672646  0.39927932  0.61362532     0.76000
O107        O  0.93232241  0.39319005  0.66846079    -0.57800
C108        C  0.96932221  0.39759681  0.78507130     0.76000
C109        C  0.94754214  0.43304608  0.70034385     0.78400
Cd110      Cd  0.95678852  0.40267214  0.69236568     1.37500
O111        O  0.98092102  0.39791574  0.65617977    -0.56600
O112        O  0.95681264  0.42891472  0.67003849    -0.55400
C113        C  0.93590148  0.37975256  0.67127361     0.78300
O114        O  0.94179549  0.42305153  0.72551490    -0.57800
O115        O  0.96334631  0.40218817  0.60740073    -0.56300
O116        O  0.95683029  0.39274271  0.77398632    -0.56200
O117        O  0.94884316  0.37708202  0.68412100    -0.55400
O118        O  0.02148244  0.39525801  0.23453593    -0.56600
C119        C  0.03049176  0.40722640  0.09887243     0.76000
O120        O  0.05364353  0.43103693  0.21931712    -0.57800
C121        C  0.02601373  0.39761670  0.27625001     0.76000
C122        C  0.06788563  0.38841911  0.18077790     0.78400
Cd123      Cd  0.04243568  0.40708228  0.19373545     1.37500
O124        O  0.04124237  0.41519818  0.11060497    -0.56600
O125        O  0.05500051  0.38337291  0.18203815    -0.55400
C126        C  0.04179133  0.43814362  0.21524397     0.78300
O127        O  0.06924597  0.40213303  0.18752732    -0.57800
O128        O  0.02519600  0.39899171  0.13089115    -0.56300
O129        O  0.03852872  0.40347913  0.27995601    -0.56200
O130        O  0.03082042  0.43102151  0.20051937    -0.55400
O131        O  0.96946012  0.56642436  0.80141069    -0.56600
C132        C  0.96892685  0.57217709  0.94284501     0.76000
O133        O  0.92358094  0.57198542  0.87633751    -0.57800
C134        C  0.96385192  0.57593238  0.77411191     0.76000
C135        C  0.94283770  0.53665050  0.84655250     0.78400
Cd136      Cd  0.94991517  0.56742197  0.86195639     1.37500
O137        O  0.97323443  0.57431291  0.90077985    -0.56600
O138        O  0.94004620  0.54642992  0.81598528    -0.55400
C139        C  0.92481487  0.58582329  0.87925237     0.78300
O140        O  0.94845223  0.54107458  0.88496214    -0.57800
O141        O  0.95589925  0.56773242  0.94772565    -0.56300
O142        O  0.95204533  0.58171514  0.78787411    -0.56200
O143        O  0.93752763  0.59106581  0.87398790    -0.55400
O144        O  0.01174274  0.58044839  0.32452501    -0.56600
C145        C  0.02412607  0.57457977  0.45654457     0.76000
O146        O  0.05455959  0.55865580  0.33281788    -0.57800
C147        C  0.01636883  0.58030265  0.28218686     0.76000
C148        C  0.05627554  0.60100953  0.36943213     0.78400
Cd149      Cd  0.03596409  0.57656619  0.36145940     1.37500
O150        O  0.01834116  0.58291694  0.42589918    -0.56600
O151        O  0.04372235  0.60253115  0.35149432    -0.55400
C152        C  0.04598927  0.54768375  0.33345214     0.78300
O153        O  0.05963985  0.58815536  0.38264795    -0.57800
O154        O  0.03506430  0.56724254  0.44311589    -0.56300
O155        O  0.03004639  0.57916846  0.27669409    -0.56200
O156        O  0.03316661  0.55003105  0.34838058    -0.55400
O157        O  0.83635815  0.76319059  0.42408076    -0.56600
C158        C  0.83271727  0.76246680  0.56388013     0.76000
O159        O  0.83540308  0.80671959  0.46882513    -0.57800
C160        C  0.83089814  0.76959911  0.38838215     0.76000
C161        C  0.79603331  0.78414418  0.49779948     0.78400
Cd162      Cd  0.82703115  0.78098436  0.48313284     1.37500
O163        O  0.83488187  0.75797726  0.52196277    -0.56600
O164        O  0.80164501  0.77293427  0.47871626    -0.55400
C165        C  0.84828484  0.80452122  0.48352780     0.78300
O166        O  0.80470232  0.79446268  0.50919011    -0.57800
O167        O  0.82822248  0.77555552  0.56840257    -0.56300
O168        O  0.82371547  0.78118804  0.39644749    -0.56200
O169        O  0.85098853  0.79186054  0.49964522    -0.55400
O170        O  0.83942227  0.71936120  0.94503896    -0.56600
C171        C  0.83922427  0.70610726  0.08103283     0.76000
O172        O  0.80868473  0.70024661  0.00517644    -0.57800
C173        C  0.83556236  0.71516783  0.90417308     0.76000
C174        C  0.85784697  0.67551128  0.96728802     0.78400
Cd175      Cd  0.83425168  0.69577221  0.98556897     1.37500
O176        O  0.83837929  0.71485633  0.04617451    -0.56600
O177        O  0.86011364  0.68904862  0.97463400    -0.55400
C178        C  0.80373647  0.68770746  0.99415251     0.78300
O179        O  0.84469428  0.67118488  0.96950833    -0.57800
O180        O  0.83832594  0.69251657  0.07166880    -0.56300
O181        O  0.83096485  0.70206252  0.90079265    -0.56200
O182        O  0.81288748  0.67861379  0.97777460    -0.55400
O183        O  0.65052744  0.77209476  0.62704700    -0.56600
C184        C  0.65094069  0.77316461  0.48516499     0.76000
O185        O  0.64342207  0.81639814  0.57175659    -0.57800
C186        C  0.65342879  0.78004638  0.66272271     0.76000
C187        C  0.68500727  0.79941159  0.55702477     0.78400
Cd188      Cd  0.65461217  0.79161965  0.56762980     1.37500
O189        O  0.64928317  0.76822984  0.52678209    -0.56600
O190        O  0.68079312  0.78709984  0.57299582    -0.55400
C191        C  0.63035515  0.81181042  0.56978007     0.78300
O192        O  0.67509771  0.80851235  0.54626931    -0.57800
O193        O  0.65391641  0.78673324  0.48141561    -0.56300
O194        O  0.65679824  0.79330709  0.65448076    -0.56200
O195        O  0.62858283  0.79808876  0.56530307    -0.55400
O196        O  0.65379780  0.72940760  0.10420707    -0.56600
C197        C  0.65748586  0.71625250  0.97065911     0.76000
O198        O  0.68682350  0.71428399  0.07474661    -0.57800
C199        C  0.65655652  0.72543099  0.14627322     0.76000
C200        C  0.63953047  0.68411070  0.08501211     0.78400
Cd201      Cd  0.66157824  0.70618176  0.06681709     1.37500
O202        O  0.65453142  0.72436508  0.00585281    -0.56600
O203        O  0.63664645  0.69630476  0.06574858    -0.55400
C204        C  0.69287313  0.70207432  0.06662107     0.78300
O205        O  0.65281351  0.68175013  0.09495794    -0.57800
O206        O  0.66205709  0.70344911  0.97985373    -0.56300
O207        O  0.66165950  0.71260170  0.15159548    -0.56200
O208        O  0.68446167  0.69119048  0.05940274    -0.55400
O209        O  0.33245416  0.75803819  0.11707028    -0.56600
C210        C  0.33557800  0.77026232  0.98474868     0.76000
O211        O  0.30437593  0.78032812  0.04861295    -0.57800
C212        C  0.33202272  0.76285073  0.15906198     0.76000
C213        C  0.35296469  0.80316812  0.08667395     0.78400
Cd214      Cd  0.32956223  0.78212198  0.07744571     1.37500
O215        O  0.33241428  0.76205507  0.01961634    -0.56600
O216        O  0.35514562  0.78944439  0.08815401    -0.55400
C217        C  0.29940572  0.79143661  0.07001965     0.78300
O218        O  0.33989285  0.80730102  0.08070548    -0.57800
O219        O  0.33629624  0.78393489  0.99286685    -0.56300
O220        O  0.33021938  0.77656844  0.16373049    -0.56200
O221        O  0.30827185  0.79827410  0.09646244    -0.55400
O222        O  0.33683045  0.70176657  0.49327250    -0.56600
C223        C  0.33404932  0.70765537  0.67340735     0.76000
O224        O  0.31540077  0.68000435  0.54527190    -0.57800
C225        C  0.33966080  0.71532964  0.49822466     0.76000
C226        C  0.35866654  0.67530713  0.58652321     0.78400
Cd227      Cd  0.33484187  0.69613062  0.57835163     1.37500
O228        O  0.33920275  0.71525759  0.63955610    -0.56600
O229        O  0.36040164  0.68811142  0.56993820    -0.55400
C230        C  0.30497896  0.68836804  0.55710601     0.78300
O231        O  0.34575244  0.67172927  0.59783807    -0.57800
O232        O  0.32935024  0.69496627  0.66314137    -0.56300
O233        O  0.34083171  0.71999922  0.54038723    -0.56200
O234        O  0.30838922  0.69997972  0.57925485    -0.55400
O235        O  0.15937229  0.77654997  0.86886465    -0.56600
C236        C  0.15323199  0.76910299  0.04515245     0.76000
O237        O  0.18548008  0.77940907  0.92973787    -0.57800
C238        C  0.15410456  0.76373904  0.87385115     0.76000
C239        C  0.14111120  0.80751925  0.93689656     0.78400
Cd240      Cd  0.15990803  0.78253743  0.95437771     1.37500
O241        O  0.16094464  0.76265119  0.01434265    -0.56600
O242        O  0.13615538  0.79456885  0.94110964    -0.55400
C243        C  0.19112135  0.78810385  0.95948898     0.78300
O244        O  0.15481378  0.80902596  0.94068407    -0.57800
O245        O  0.14835919  0.78161076  0.03384254    -0.56300
O246        O  0.15127346  0.75970810  0.91583655    -0.56200
O247        O  0.18235097  0.79479944  0.98659887    -0.55400
O248        O  0.15281641  0.71915437  0.49477167    -0.56600
C249        C  0.16271016  0.70785702  0.35956629     0.76000
O250        O  0.18681407  0.68545982  0.47991926    -0.57800
C251        C  0.15432412  0.71456992  0.53684941     0.76000
C252        C  0.14420463  0.67184319  0.45014359     0.78400
Cd253      Cd  0.16330773  0.69721344  0.45607013     1.37500
O254        O  0.15512097  0.71381954  0.39181241    -0.56600
O255        O  0.13949905  0.68486738  0.44676522    -0.55400
C256        C  0.19427482  0.69713396  0.47449406     0.78300
O257        O  0.15776568  0.67043024  0.45754537    -0.57800
O258        O  0.17038159  0.69694661  0.37176616    -0.56300
O259        O  0.15941798  0.70172736  0.54169649    -0.56200
O260        O  0.18750057  0.70836229  0.46005104    -0.55400
O261        O  0.32187761  0.22311530  0.47792211    -0.56600
C262        C  0.32796140  0.22058996  0.33711222     0.76000
O263        O  0.32961771  0.17652787  0.40195597    -0.57800
C264        C  0.33227185  0.21973203  0.50533521     0.76000
C265        C  0.29686792  0.19294116  0.45155929     0.78400
Cd266      Cd  0.32542319  0.20267313  0.42166808     1.37500
O267        O  0.33481663  0.22350269  0.37483631    -0.56600
O268        O  0.29835374  0.20188728  0.41733010    -0.55400
C269        C  0.34336562  0.17738065  0.39922213     0.78300
O270        O  0.30846890  0.18818829  0.47032393    -0.57800
O271        O  0.31960091  0.20946028  0.33823173    -0.56300
O272        O  0.33985714  0.20870918  0.49347519    -0.56200
O273        O  0.34897070  0.18985794  0.40772260    -0.55400
O274        O  0.32615315  0.26335486  0.95422175    -0.56600
C275        C  0.32017511  0.27192350  0.83086826     0.76000
O276        O  0.29723004  0.29814550  0.89776692    -0.57800
C277        C  0.32701098  0.26785034  0.99659454     0.76000
C278        C  0.34152402  0.31267283  0.90860560     0.78400
Cd279      Cd  0.32143267  0.28799778  0.91912521     1.37500
O280        O  0.33207083  0.27727975  0.84610772    -0.56600
O281        O  0.34590112  0.30020175  0.92251515    -0.55400
C282        C  0.29233084  0.29817182  0.93971427     0.78300
O283        O  0.32799898  0.31380230  0.90066041    -0.57800
O284        O  0.30909653  0.27351400  0.85707942    -0.56300
O285        O  0.32607453  0.28160634  0.00270318    -0.56200
O286        O  0.30108519  0.29422935  0.97197707    -0.55400
O287        O  0.14326050  0.20613906  0.63553388    -0.56600
C288        C  0.14861840  0.20671597  0.49412968     0.76000
O289        O  0.17552383  0.17881938  0.52746136    -0.57800
C290        C  0.15326338  0.20734952  0.66621322     0.76000
C291        C  0.14269028  0.16395154  0.60209713     0.78400
Cd292      Cd  0.15752951  0.19109720  0.57862972     1.37500
O293        O  0.15708552  0.21257954  0.52423937    -0.56600
O294        O  0.13616236  0.17490880  0.58447467    -0.55400
C295        C  0.18661831  0.18512267  0.54490207     0.78300
O296        O  0.15631052  0.16533498  0.60840016    -0.57800
O297        O  0.14346106  0.19423204  0.50478259    -0.56300
O298        O  0.16543452  0.20164212  0.65572411    -0.56200
O299        O  0.18441984  0.19356328  0.57992651    -0.55400
O300        O  0.15329671  0.25815154  0.13927669    -0.56600
C301        C  0.15648504  0.26321401  0.98848601     0.76000
O302        O  0.14843611  0.30321011  0.08909459    -0.57800
C303        C  0.15659222  0.26617568  0.17461091     0.76000
C304        C  0.18898672  0.28499222  0.07234230     0.78400
Cd305      Cd  0.15838735  0.27804132  0.07943732     1.37500
O306        O  0.15341423  0.25619258  0.02619288    -0.56600
O307        O  0.18444692  0.27280795  0.08834539    -0.55400
C308        C  0.13515287  0.29955969  0.08436092     0.78300
O309        O  0.17936910  0.29434794  0.06093806    -0.57800
O310        O  0.15961225  0.27667055  0.99329194    -0.56300
O311        O  0.16054043  0.27920939  0.16555508    -0.56200
O312        O  0.13263801  0.28613285  0.07552780    -0.55400
O313        O  0.52199072  0.57368146  0.13652973    -0.56600
C314        C  0.53076788  0.58424062  0.25991892     0.76000
O315        O  0.55294278  0.55308581  0.21961590    -0.57800
C316        C  0.52605660  0.57751107  0.09547156     0.76000
C317        C  0.57160562  0.59435425  0.16129165     0.78400
Cd318      Cd  0.54610586  0.57563396  0.17486140     1.37500
O319        O  0.52697006  0.58888097  0.21946989    -0.56600
O320        O  0.55933476  0.59941147  0.17364519    -0.55400
C321        C  0.55086906  0.54424902  0.18563140     0.78300
O322        O  0.57227760  0.58057166  0.15569174    -0.57800
O323        O  0.54207772  0.57628748  0.26137910    -0.56300
O324        O  0.53945217  0.58073945  0.09068637    -0.56200
O325        O  0.54750699  0.54993332  0.14620765    -0.55400
O326        O  0.47316691  0.59158497  0.72933432    -0.56600
C327        C  0.48066664  0.57890434  0.59500744     0.76000
O328        O  0.44976568  0.55218928  0.70916866    -0.57800
C329        C  0.47455001  0.58229234  0.76242586     0.76000
C330        C  0.43394062  0.59168378  0.66028740     0.78400
Cd331      Cd  0.46049095  0.57471555  0.67341915     1.37500
O332        O  0.48499729  0.57763722  0.63735965    -0.56600
O333        O  0.44569402  0.59751395  0.67458007    -0.55400
C334        C  0.45513252  0.54344241  0.67888624     0.78300
O335        O  0.43430937  0.57799455  0.65274485    -0.57800
O336        O  0.46699337  0.57842088  0.58859494    -0.56300
O337        O  0.46927423  0.56963252  0.75480287    -0.56200
O338        O  0.46245152  0.54917451  0.64554119    -0.55400
O339        O  0.51917279  0.40189734  0.26219471    -0.56600
C340        C  0.52474982  0.40691463  0.41005844     0.76000
O341        O  0.56461437  0.39434236  0.33033352    -0.57800
C342        C  0.52725357  0.39862709  0.22721684     0.76000
C343        C  0.54893123  0.43484165  0.30320131     0.78400
Cd344      Cd  0.53979212  0.40487888  0.31975551     1.37500
O345        O  0.52050972  0.39778777  0.37892320    -0.56600
O346        O  0.53588967  0.43053374  0.29728296    -0.55400
C347        C  0.56009987  0.38158703  0.34137425     0.78300
O348        O  0.55800550  0.42524355  0.31700584    -0.57800
O349        O  0.53528116  0.41518829  0.39863262    -0.56300
O350        O  0.54077010  0.39757985  0.23563916    -0.56200
O351        O  0.54642927  0.37959715  0.34098764    -0.55400
O352        O  0.47408985  0.40099901  0.76366298    -0.56600
C353        C  0.46734786  0.40689295  0.90971354     0.76000
O354        O  0.43564120  0.42494869  0.80492627    -0.57800
C355        C  0.46655336  0.39633639  0.72905691     0.76000
C356        C  0.43197911  0.38130413  0.84015053     0.78400
Cd357      Cd  0.45297037  0.40423930  0.81836984     1.37500
O358        O  0.47239510  0.39846700  0.87789153    -0.56600
O359        O  0.44562418  0.37918629  0.84016775    -0.55400
C360        C  0.44554123  0.43408872  0.79359269     0.78300
O361        O  0.42773003  0.39413507  0.82914732    -0.57800
O362        O  0.45610777  0.41418079  0.89884457    -0.56300
O363        O  0.45305316  0.39453443  0.73662772    -0.56200
O364        O  0.45852812  0.42939067  0.79405904    -0.55400
O365        O  0.50963259  0.91248894  0.69075384    -0.56600
C366        C  0.52217137  0.91792308  0.55730445     0.76000
O367        O  0.55108148  0.93893247  0.65849296    -0.57800
C368        C  0.51433206  0.91164876  0.73283499     0.76000
C369        C  0.55716998  0.89655448  0.64966995     0.78400
Cd370      Cd  0.53368649  0.91791771  0.65311065     1.37500
O371        O  0.51701102  0.90940227  0.58880902    -0.56600
O372        O  0.54594302  0.89538893  0.62382414    -0.55400
C373        C  0.54143350  0.94847104  0.66740075     0.78300
O374        O  0.55736479  0.90723845  0.67832280    -0.57800
O375        O  0.53242461  0.92639805  0.57013956    -0.56300
O376        O  0.52800002  0.91289580  0.73798199    -0.56200
O377        O  0.52836316  0.94392868  0.66892493    -0.55400
O378        O  0.46849848  0.90300744  0.11108958    -0.56600
C379        C  0.46136186  0.90602639  0.24324820     0.76000
O380        O  0.43201540  0.93253385  0.19078870    -0.57800
C381        C  0.46552345  0.90881307  0.07150758     0.76000
C382        C  0.42238112  0.89419570  0.13129003     0.78400
Cd383      Cd  0.44704182  0.91288186  0.15414495     1.37500
O384        O  0.46709220  0.91434580  0.21238206    -0.56600
O385        O  0.43443666  0.88900174  0.14538041    -0.55400
C386        C  0.43923195  0.94319297  0.17379145     0.78300
O387        O  0.42163959  0.90804557  0.12779614    -0.57800
O388        O  0.44913088  0.90040992  0.23261925    -0.56300
O389        O  0.45402022  0.91648098  0.06987538    -0.56200
O390        O  0.44974087  0.93989709  0.14664544    -0.55400
O391        O  0.46961246  0.09312049  0.33625862    -0.56600
C392        C  0.46201305  0.09487762  0.18711638     0.76000
O393        O  0.43764210  0.06225837  0.25762325    -0.57800
C394        C  0.46349625  0.08662830  0.37091625     0.76000
C395        C  0.42839382  0.10762620  0.29547782     0.78400
Cd396      Cd  0.45055578  0.08587650  0.27766386     1.37500
O397        O  0.47039759  0.09392035  0.22285595    -0.56600
O398        O  0.44178780  0.11069504  0.29064392    -0.55400
C399        C  0.44940673  0.05492010  0.25485004     0.78300
O400        O  0.42478706  0.09416976  0.29119085    -0.57800
O401        O  0.44859467  0.09238151  0.19415917    -0.56300
O402        O  0.45188109  0.07958143  0.36191932    -0.56200
O403        O  0.46111531  0.06173979  0.26411299    -0.55400
O404        O  0.51449188  0.09779010  0.72178918    -0.56600
C405        C  0.52080286  0.09181039  0.87193926     0.76000
O406        O  0.54563772  0.06632240  0.76283251    -0.57800
C407        C  0.52276527  0.09665445  0.68576790     0.76000
C408        C  0.55662654  0.11128466  0.79754044     0.78400
Cd409      Cd  0.53369862  0.09031634  0.77936314     1.37500
O410        O  0.51489432  0.09857585  0.83746260    -0.56600
O411        O  0.54378973  0.11506131  0.78641432    -0.55400
C412        C  0.53370328  0.05915591  0.76506519     0.78300
O413        O  0.55928153  0.09757657  0.79826500    -0.57800
O414        O  0.53216165  0.08446702  0.86289689    -0.56300
O415        O  0.53599446  0.09350210  0.69361798    -0.56200
O416        O  0.52233106  0.06632415  0.77534689    -0.55400
C417        C  0.48704329  0.10021937  0.07778360     0.19900
C418        C  0.50189424  0.09749457  0.06916996    -0.18200
C419        C  0.50747241  0.09771643  0.02299208    -0.10500
C420        C  0.49826103  0.10058918  0.98408051     0.22100
C421        C  0.48356805  0.10393158  0.99274054    -0.19800
C422        C  0.47798688  0.10376613  0.03895025    -0.10700
C423        C  0.50364426  0.10033112  0.93426220    -0.14800
C424        C  0.51517399  0.09222947  0.92086880    -0.28700
C425        C  0.48152287  0.09893712  0.12746687    -0.03000
C426        C  0.46726080  0.09822379  0.13882140    -0.39500
H427        H  0.50920520  0.09499300  0.09827314     0.13300
H428        H  0.51901710  0.09571730  0.01812701     0.12900
H429        H  0.47630952  0.10646737  0.96353075     0.12300
H430        H  0.46659854  0.10646017  0.04356445     0.12600
H431        H  0.49763544  0.10649202  0.90763314     0.15300
H432        H  0.52084363  0.08545126  0.94659872     0.14100
H433        H  0.48953429  0.09755238  0.15556519     0.11800
H434        H  0.45893956  0.09894830  0.11166567     0.13800
C435        C  0.48622813  0.09661005  0.48233188     0.19900
C436        C  0.50059880  0.10147971  0.49015336    -0.18200
C437        C  0.50625745  0.10248206  0.53620552    -0.10500
C438        C  0.49760403  0.09864982  0.57572306     0.22100
C439        C  0.48307472  0.09428605  0.56796342    -0.19800
C440        C  0.47742710  0.09327084  0.52195110    -0.10700
C441        C  0.50322427  0.09898441  0.62540630    -0.14800
C442        C  0.51750999  0.09837963  0.63651768    -0.28700
C443        C  0.48071367  0.09558069  0.43262961    -0.03000
C444        C  0.46921421  0.08719175  0.41989330    -0.39500
H445        H  0.50753275  0.10441788  0.46043706     0.13300
H446        H  0.51734307  0.10639922  0.54045912     0.12900
H447        H  0.47607565  0.09149876  0.59767126     0.12300
H448        H  0.46611719  0.09005209  0.51787088     0.12600
H449        H  0.49525478  0.09861498  0.65399318     0.15300
H450        H  0.52569452  0.09784381  0.60876775     0.14100
H451        H  0.48652807  0.10171798  0.40537186     0.11800
H452        H  0.46355651  0.08053222  0.44606341     0.13800
C453        C  0.44189644  0.98562095  0.18549205     0.19900
C454        C  0.45324830  0.99563099  0.17602441    -0.18200
C455        C  0.45213968  0.01038559  0.18944567    -0.10500
C456        C  0.43959211  0.01555732  0.21291716     0.22100
C457        C  0.42799779  0.00571045  0.22096192    -0.19800
C458        C  0.42912512  0.99087835  0.20765917    -0.10700
C459        C  0.43828698  0.03117832  0.22854068    -0.14800
C460        C  0.45002426  0.03926982  0.24087269    -0.28700
C461        C  0.44398650  0.96995427  0.17120993    -0.03000
C462        C  0.43566307  0.95859791  0.18612635    -0.39500
H463        H  0.46311567  0.99200051  0.15836074     0.13300
H464        H  0.46108610  0.01772872  0.18083479     0.12900
H465        H  0.41811071  0.00946346  0.23821185     0.12300
H466        H  0.41992847  0.98370504  0.21456223     0.12600
H467        H  0.42745431  0.03595670  0.23134636     0.15300
H468        H  0.46078906  0.03429734  0.24056629     0.14100
H469        H  0.45336748  0.96755748  0.14886210     0.11800
H470        H  0.42648959  0.96037542  0.20972861     0.13800
C471        C  0.54138583  0.01970844  0.72237370     0.19900
C472        C  0.55330897  0.01005582  0.72318317    -0.18200
C473        C  0.55153940  0.99524475  0.71053296    -0.10500
C474        C  0.53777937  0.98987835  0.69607802     0.22100
C475        C  0.52597683  0.99966557  0.69419165    -0.19800
C476        C  0.52774260  0.01440288  0.70683878    -0.10700
C477        C  0.53492305  0.97414304  0.68475895    -0.14800
C478        C  0.54530099  0.96402975  0.67615015    -0.28700
C479        C  0.54346825  0.03530727  0.73677844    -0.03000
C480        C  0.53253220  0.04330513  0.75518603    -0.39500
H481        H  0.56395065  0.01391629  0.73460873     0.13300
H482        H  0.56088986  0.98806948  0.71325507     0.12900
H483        H  0.51528931  0.99588590  0.68290070     0.12300
H484        H  0.51840851  0.02161479  0.70385907     0.12600
H485        H  0.52353947  0.97071164  0.68328486     0.15300
H486        H  0.55677091  0.96702645  0.67557469     0.14100
H487        H  0.55420199  0.04027195  0.73235971     0.11800
H488        H  0.52195556  0.03824772  0.76163544     0.13800
C489        C  0.48699140  0.90989479  0.35159401     0.19900
C490        C  0.49574148  0.92166315  0.36704994    -0.18200
C491        C  0.50204958  0.92159269  0.41221533    -0.10500
C492        C  0.49995190  0.90955964  0.44304026     0.22100
C493        C  0.49134950  0.89767513  0.42729279    -0.19800
C494        C  0.48496433  0.89778688  0.38208080    -0.10700
C495        C  0.50601202  0.90920520  0.49226127    -0.14800
C496        C  0.51668349  0.91823661  0.50795611    -0.28700
C497        C  0.48029692  0.91083164  0.30352730    -0.03000
C498        C  0.46833656  0.90327077  0.28975759    -0.39500
H499        H  0.49747765  0.93114125  0.34436625     0.13300
H500        H  0.50824176  0.93117694  0.42285295     0.12900
H501        H  0.48954315  0.88824791  0.45012418     0.15500
H502        H  0.47858560  0.88833888  0.37117048     0.12600
H503        H  0.50155876  0.90104714  0.51655081     0.15300
H504        H  0.52181715  0.92608677  0.48423600     0.14100
H505        H  0.48490829  0.91891582  0.27927475     0.11800
H506        H  0.46297172  0.89565221  0.31379351     0.13800
C507        C  0.48145756  0.91106226  0.94424492     0.19900
C508        C  0.47538057  0.91387168  0.89941771    -0.18200
C509        C  0.48398871  0.91340936  0.85836088    -0.10500
C510        C  0.49899463  0.91013779  0.86115565     0.22100
C511        C  0.50508864  0.90741381  0.90604905    -0.19800
C512        C  0.49646842  0.90783737  0.94710522    -0.10700
C513        C  0.50884903  0.91040424  0.81888546    -0.14800
C514        C  0.50422112  0.90979987  0.77348460    -0.28700
C515        C  0.47192807  0.91240945  0.98697799    -0.03000
C516        C  0.47516031  0.90675690  0.02990531    -0.39500
H517        H  0.46390851  0.91659321  0.89614909     0.13300
H518        H  0.47886653  0.91604021  0.82490311     0.12900
H519        H  0.51664565  0.90510303  0.90946668     0.12300
H520        H  0.50174517  0.90603623  0.98089378     0.12600
H521        H  0.52051380  0.91131115  0.82557836     0.15300
H522        H  0.49271699  0.90846406  0.76540671     0.14100
H523        H  0.46163909  0.91819754  0.98264543     0.11800
H524        H  0.48500564  0.90035861  0.03509346     0.13800
C525        C  0.50206901  0.39931238  0.11635547     0.19900
C526        C  0.48858452  0.40602025  0.10682181    -0.18200
C527        C  0.48282078  0.40625312  0.06083483    -0.10500
C528        C  0.49045183  0.39977331  0.02281834     0.22100
C529        C  0.50380891  0.39281997  0.03244183    -0.19800
C530        C  0.50957383  0.39256913  0.07850568    -0.10700
C531        C  0.48457858  0.39939715  0.97334346    -0.14800
C532        C  0.47380049  0.40820710  0.95762855    -0.28700
C533        C  0.50773859  0.39966181  0.16613158    -0.03000
C534        C  0.52160426  0.39650623  0.17845638    -0.39500
H535        H  0.48244415  0.41114963  0.13517648     0.13300
H536        H  0.47226054  0.41128828  0.05578149     0.12900
H537        H  0.50982669  0.38751891  0.00413900     0.12300
H538        H  0.51979283  0.38691248  0.08400069     0.12600
H539        H  0.48931232  0.39149417  0.94887593     0.15300
H540        H  0.46913977  0.41650355  0.98064937     0.14100
H541        H  0.50033963  0.40349085  0.19362553     0.11800
H542        H  0.52949244  0.39325720  0.15182967     0.13800
C543        C  0.49205922  0.39785770  0.61963301     0.19900
C544        C  0.50351005  0.40741778  0.60718347    -0.18200
C545        C  0.50923064  0.40752721  0.56115141    -0.10500
C546        C  0.50359491  0.39802627  0.52604591     0.22100
C547        C  0.49239414  0.38818270  0.53888223    -0.19800
C548        C  0.48667648  0.38806900  0.58502381    -0.10700
C549        C  0.50936002  0.39764288  0.47638914    -0.14800
C550        C  0.51819674  0.40804275  0.45781982    -0.28700
C551        C  0.48615834  0.39852194  0.66895612    -0.03000
C552        C  0.47282474  0.39355468  0.68154054    -0.39500
H553        H  0.50801627  0.41494353  0.63318830     0.13300
H554        H  0.51817927  0.41496912  0.55391609     0.12900
H555        H  0.48800831  0.38054024  0.51302473     0.12300
H556        H  0.47818357  0.38018246  0.59333462     0.12600
H557        H  0.50626733  0.38834690  0.45426678     0.15300
H558        H  0.52136989  0.41756616  0.47849389     0.14100
H559        H  0.49264078  0.40434445  0.69529718     0.11800
H560        H  0.46569977  0.38850295  0.65546672     0.13800
C561        C  0.45032825  0.47411631  0.75053298     0.19900
C562        C  0.45988184  0.48060550  0.71767102    -0.18200
C563        C  0.45886228  0.49554378  0.70663399    -0.10500
C564        C  0.44823734  0.50443031  0.72849293     0.22100
C565        C  0.43868924  0.49794081  0.76156686    -0.19800
C566        C  0.43965548  0.48291724  0.77238804    -0.10700
C567        C  0.44766942  0.52063390  0.72060822    -0.14800
C568        C  0.45358096  0.52731760  0.68246234    -0.28700
C569        C  0.45262977  0.45845237  0.76339087    -0.03000
C570        C  0.44218068  0.44948163  0.78078642    -0.39500
H571        H  0.46834718  0.47411536  0.70091559     0.13300
H572        H  0.46681699  0.50010678  0.68234661     0.12900
H573        H  0.43059111  0.50456738  0.77960404     0.12300
H574        H  0.43238412  0.47837866  0.79894075     0.12600
H575        H  0.44261944  0.52732955  0.74798390     0.15300
H576        H  0.45818133  0.52087926  0.65378491     0.14100
H577        H  0.46346605  0.45399465  0.75702795     0.11800
H578        H  0.43104733  0.45333039  0.78504275     0.13800
C579        C  0.55236634  0.50550755  0.24154027     0.19900
C580        C  0.56003183  0.49863633  0.27858566    -0.18200
C581        C  0.55782171  0.48367338  0.28870207    -0.10500
C582        C  0.54769029  0.47536835  0.26227278     0.22100
C583        C  0.53995759  0.48228841  0.22561951    -0.19800
C584        C  0.54228280  0.49713635  0.21517861    -0.10700
C585        C  0.54411610  0.45977960  0.27335677    -0.14800
C586        C  0.55332515  0.45028069  0.29440472    -0.28700
C587        C  0.55413073  0.52162021  0.23360329    -0.03000
C588        C  0.55156357  0.52810885  0.19143776    -0.39500
H589        H  0.56765176  0.50490318  0.30001456     0.13300
H590        H  0.56368830  0.47880309  0.31805651     0.12900
H591        H  0.53193832  0.47619843  0.20519684     0.12300
H592        H  0.53575669  0.50211481  0.18754888     0.12600
H593        H  0.53349367  0.45577345  0.26176355     0.15300
H594        H  0.56431351  0.45367178  0.30399511     0.14100
H595        H  0.55729367  0.52837356  0.26373379     0.11800
H596        H  0.54907746  0.52145373  0.16050394     0.13800
C597        C  0.51536819  0.58253956  0.38729126     0.19900
C598        C  0.52119380  0.57944045  0.43222761    -0.18200
C599        C  0.51225031  0.57917587  0.47250641    -0.10500
C600        C  0.49716193  0.58198352  0.46870338     0.22100
C601        C  0.49135467  0.58507564  0.42369385    -0.19800
C602        C  0.50030290  0.58535907  0.38345358    -0.10700
C603        C  0.48695087  0.58104831  0.50988909    -0.14800
C604        C  0.49119637  0.58064663  0.55562381    -0.28700
C605        C  0.52507424  0.58147601  0.34504717    -0.03000
C606        C  0.52198257  0.58748394  0.30255492    -0.39500
H607        H  0.53270794  0.57698305  0.43611076     0.13300
H608        H  0.51721933  0.57634583  0.50601456     0.12900
H609        H  0.47976356  0.58707572  0.41948630     0.12300
H610        H  0.49523529  0.58729348  0.34939944     0.12600
H611        H  0.47532515  0.58063587  0.50207834     0.15300
H612        H  0.50264057  0.58143659  0.56508147     0.14100
H613        H  0.53505364  0.57513125  0.34889552     0.11800
H614        H  0.51240405  0.59432759  0.29797785     0.13800
C615        C  0.49174044  0.57910870  0.88749539     0.19900
C616        C  0.48916150  0.56998667  0.92687039    -0.18200
C617        C  0.49770721  0.57118544  0.96783341    -0.10500
C618        C  0.50912801  0.58157439  0.97038283     0.22100
C619        C  0.51166281  0.59076609  0.93115768    -0.19800
C620        C  0.50306415  0.58961478  0.89021857    -0.10700
C621        C  0.51922535  0.58237023  0.01178555    -0.14800
C622        C  0.51557041  0.57776011  0.05562594    -0.28700
C623        C  0.48316082  0.57647141  0.84334022    -0.03000
C624        C  0.48221162  0.58606003  0.80699614    -0.39500
H625        H  0.48066033  0.56166625  0.92560460     0.13300
H626        H  0.49565051  0.56356850  0.99657747     0.12900
H627        H  0.52049829  0.59872965  0.93190686     0.12300
H628        H  0.50572458  0.59661108  0.86040411     0.12600
H629        H  0.53006434  0.58695233  0.00591373     0.15300
H630        H  0.50456377  0.57390881  0.06292052     0.14100
H631        H  0.47741238  0.56601573  0.84053882     0.11800
H632        H  0.48722169  0.59686336  0.80932652     0.13800
C633        C  0.15243024  0.24199801  0.28748619     0.19900
C634        C  0.14543481  0.22862136  0.29811561    -0.18200
C635        C  0.14519460  0.22311909  0.34454048    -0.10500
C636        C  0.15199815  0.23091458  0.38173688     0.22100
C637        C  0.15904408  0.24425606  0.37106421    -0.19800
C638        C  0.15931570  0.24973308  0.32467405    -0.10700
C639        C  0.15302513  0.22511240  0.43117381    -0.14800
C640        C  0.14533636  0.21354223  0.44779618    -0.28700
C641        C  0.15272109  0.24717804  0.23713801    -0.03000
C642        C  0.15604281  0.26106772  0.22437959    -0.39500
H643        H  0.14020741  0.22231482  0.27023989     0.13300
H644        H  0.13998429  0.21259535  0.35045571     0.12900
H645        H  0.16459636  0.25038917  0.39869116     0.12300
H646        H  0.16527936  0.25982193  0.31832962     0.12600
H647        H  0.16096104  0.23030652  0.45453083     0.15300
H648        H  0.13717487  0.20815401  0.42601093     0.14100
H649        H  0.14986343  0.23931580  0.20958704     0.11800
H650        H  0.15842513  0.26928949  0.25111670     0.13800
C651        C  0.15889397  0.22425280  0.79047207     0.19900
C652        C  0.16918990  0.23417027  0.80887641    -0.18200
C653        C  0.16737023  0.24019945  0.85412813    -0.10500
C654        C  0.15530262  0.23622756  0.88245112     0.22100
C655        C  0.14523312  0.22592826  0.86464410    -0.19800
C656        C  0.14689842  0.22011705  0.81884127    -0.10700
C657        C  0.15332865  0.24248600  0.93091990    -0.14800
C658        C  0.15706942  0.25648340  0.94077567    -0.28700
C659        C  0.16144401  0.21772468  0.74286968    -0.03000
C660        C  0.15057643  0.21463375  0.71230860    -0.39500
H661        H  0.17865239  0.23731388  0.78804650     0.13300
H662        H  0.17559640  0.24774760  0.86727741     0.12900
H663        H  0.13598332  0.22250834  0.88600570     0.12300
H664        H  0.13900380  0.21215144  0.80608801     0.12600
H665        H  0.14846111  0.23564449  0.95836543     0.15300
H666        H  0.16102713  0.26351406  0.91232045     0.14100
H667        H  0.17268816  0.21582879  0.73212217     0.11800
H668        H  0.13938408  0.21739082  0.72142494     0.13800
C669        C  0.37647565  0.33638547  0.89336379     0.19900
C670        C  0.39103019  0.33281719  0.88295254    -0.18200
C671        C  0.40111525  0.34373581  0.87021133    -0.10500
C672        C  0.39694526  0.35864989  0.86834609     0.22100
C673        C  0.38241230  0.36223412  0.87935807    -0.19800
C674        C  0.37230356  0.35128723  0.89194517    -0.10700
C675        C  0.40724553  0.37072938  0.85448329    -0.14800
C676        C  0.42187518  0.36919499  0.85286584    -0.28700
C677        C  0.36608571  0.32422457  0.90515023    -0.03000
C678        C  0.35147117  0.32531875  0.90094365    -0.39500
H679        H  0.39456830  0.32145180  0.88373190     0.13300
H680        H  0.41202931  0.34027433  0.86105033     0.12900
H681        H  0.37885994  0.37359229  0.87843969     0.12300
H682        H  0.36132196  0.35461935  0.90093997     0.12600
H683        H  0.40260815  0.38144166  0.84643964     0.15300
H684        H  0.42691923  0.35884545  0.86237667     0.14100
H685        H  0.37071693  0.31364552  0.91491317     0.11800
H686        H  0.34654663  0.33550647  0.88904916     0.13800
C687        C  0.25585066  0.30195092  0.00647614     0.19900
C688        C  0.25138989  0.29639872  0.05066020    -0.18200
C689        C  0.23661257  0.29570936  0.06267542    -0.10500
C690        C  0.22591425  0.30060692  0.03064991     0.22100
C691        C  0.23036850  0.30690441  0.98750633    -0.19800
C692        C  0.24519060  0.30753757  0.97532689    -0.10700
C693        C  0.21007733  0.29898707  0.04087859    -0.14800
C694        C  0.20475204  0.28774188  0.06675780    -0.28700
C695        C  0.27163518  0.30117326  0.99435000    -0.03000
C696        C  0.27699179  0.30195277  0.94994269    -0.39500
H697        H  0.25936181  0.29223112  0.07565074     0.13300
H698        H  0.23361539  0.29128740  0.09699259     0.12900
H699        H  0.22232788  0.31097387  0.96258781     0.12300
H700        H  0.24815412  0.31233094  0.94155563     0.12600
H701        H  0.20253584  0.30643783  0.02336897     0.15300
H702        H  0.21209490  0.27955421  0.08137236     0.14100
H703        H  0.27909651  0.29851481  0.02309032     0.11800
H704        H  0.26990925  0.30412244  0.91996187     0.13800
C705        C  0.37535456  0.15290127  0.35819504     0.19900
C706        C  0.38727465  0.15563100  0.32816272    -0.18200
C707        C  0.39630090  0.14415640  0.31326312    -0.10500
C708        C  0.39380683  0.12964364  0.32898623     0.22100
C709        C  0.38171024  0.12685085  0.35834623    -0.19800
C710        C  0.37260054  0.13835195  0.37305198    -0.10700
C711        C  0.40372917  0.11731119  0.31588107    -0.14800
C712        C  0.41794150  0.11952185  0.30588371    -0.28700
C713        C  0.36635386  0.16557218  0.37410989    -0.03000
C714        C  0.35219316  0.16440582  0.38633223    -0.39500
H715        H  0.38956810  0.16670557  0.31589517     0.13300
H716        H  0.40515932  0.14673355  0.28922077     0.12900
H717        H  0.37950874  0.11578919  0.37087652     0.12300
H718        H  0.36367589  0.13585423  0.39694001     0.12600
H719        H  0.39949403  0.10613022  0.31727640     0.15300
H720        H  0.42249892  0.13054752  0.30747520     0.14100
H721        H  0.37137845  0.17643010  0.37317894     0.11800
H722        H  0.34665316  0.15384370  0.38444823     0.13800
C723        C  0.22775657  0.18846081  0.51981289     0.19900
C724        C  0.24050529  0.18719866  0.54698850    -0.18200
C725        C  0.25425252  0.18843364  0.52567357    -0.10500
C726        C  0.25550784  0.19117850  0.47663989     0.22100
C727        C  0.24272734  0.19247982  0.44951475    -0.19800
C728        C  0.22897878  0.19102286  0.47074377    -0.10700
C729        C  0.26988042  0.19395701  0.45366646    -0.14800
C730        C  0.28249152  0.18851645  0.47051953    -0.28700
C731        C  0.21337102  0.18844505  0.54400428    -0.03000
C732        C  0.20118514  0.18317551  0.52354151    -0.39500
H733        H  0.23981408  0.18547468  0.58495811     0.13300
H734        H  0.26381376  0.18785043  0.54812137     0.12900
H735        H  0.24338621  0.19483880  0.41189559     0.12300
H736        H  0.21933398  0.19249293  0.44905849     0.12600
H737        H  0.27008957  0.20089834  0.42225056     0.15300
H738        H  0.28242529  0.18101244  0.50048170     0.14100
H739        H  0.21280054  0.19300337  0.57959877     0.11800
H740        H  0.20179909  0.17775231  0.48927265     0.13800
C741        C  0.32906167  0.25734429  0.70563203     0.19900
C742        C  0.34171952  0.25214676  0.68317476    -0.18200
C743        C  0.34106004  0.24620660  0.63744078    -0.10500
C744        C  0.32766786  0.24541060  0.61306908     0.22100
C745        C  0.31513054  0.25120594  0.63469808    -0.19800
C746        C  0.31577216  0.25706258  0.68051310    -0.10700
C747        C  0.32624458  0.23848286  0.56551111    -0.14800
C748        C  0.33524188  0.22786788  0.54963209    -0.28700
C749        C  0.33027660  0.26360289  0.75421279    -0.03000
C750        C  0.31894208  0.26454627  0.78444680    -0.39500
H751        H  0.35215156  0.25256412  0.70127402     0.13300
H752        H  0.35106413  0.24235572  0.62131159     0.12900
H753        H  0.30472933  0.25097619  0.61637288     0.12300
H754        H  0.30588037  0.26152336  0.69568998     0.12600
H755        H  0.31670001  0.24132281  0.54451378     0.15300
H756        H  0.34439212  0.22423038  0.57101440     0.14100
H757        H  0.34095761  0.26748870  0.76561307     0.11800
H758        H  0.30830980  0.26017934  0.77474692     0.13800
C759        C  0.32810914  0.25247912  0.12459766     0.19900
C760        C  0.33041676  0.25893351  0.16922232    -0.18200
C761        C  0.32929926  0.25061110  0.21078743    -0.10500
C762        C  0.32586056  0.23551445  0.20875303     0.22100
C763        C  0.32355882  0.22902685  0.16416216    -0.19800
C764        C  0.32469039  0.23736376  0.12249118    -0.10700
C765        C  0.32396249  0.22636935  0.25223472    -0.14800
C766        C  0.32984762  0.22986012  0.29452419    -0.28700
C767        C  0.32833909  0.26221149  0.08202024    -0.03000
C768        C  0.32850392  0.25747859  0.03673153    -0.39500
H769        H  0.33285656  0.27057876  0.17205297     0.13300
H770        H  0.33071253  0.25620441  0.24431013     0.12900
H771        H  0.32074211  0.21746285  0.16156421     0.12300
H772        H  0.32246234  0.23195946  0.08913242     0.12600
H773        H  0.31783400  0.21614962  0.24895710     0.15300
H774        H  0.33671049  0.23954326  0.29821288     0.14100
H775        H  0.32806119  0.27400432  0.08847450     0.11800
H776        H  0.32915852  0.24585035  0.02850751     0.13800
C777        C  0.15495326  0.73087562  0.24680363     0.19900
C778        C  0.14931422  0.74502389  0.23906381    -0.18200
C779        C  0.14936710  0.75129348  0.19370559    -0.10500
C780        C  0.15498933  0.74344994  0.15468438     0.22100
C781        C  0.16037145  0.72919200  0.16233005    -0.19800
C782        C  0.16031558  0.72293042  0.20765714    -0.10700
C783        C  0.15621283  0.74983081  0.10607587    -0.14800
C784        C  0.15028230  0.76269521  0.09237108    -0.28700
C785        C  0.15485279  0.72484909  0.29600544    -0.03000
C786        C  0.16284694  0.71323068  0.31013731    -0.39500
H787        H  0.14504850  0.75137928  0.26845062     0.13300
H788        H  0.14527580  0.76236560  0.19004786     0.12900
H789        H  0.16472682  0.72285422  0.13304225     0.12300
H790        H  0.16437548  0.71184253  0.21141690     0.12600
H791        H  0.16267923  0.74373299  0.08043371     0.15300
H792        H  0.14348745  0.76902892  0.11621705     0.14100
H793        H  0.14822191  0.73053739  0.32217335     0.11800
H794        H  0.17001547  0.70759947  0.28558625     0.13800
C795        C  0.15214534  0.72974202  0.66469898     0.19900
C796        C  0.15202107  0.72348849  0.71026822    -0.18200
C797        C  0.15249289  0.73237124  0.75079037    -0.10500
C798        C  0.15309851  0.74780799  0.74662178     0.22100
C799        C  0.15306218  0.75406242  0.70108444    -0.19800
C800        C  0.15257180  0.74518789  0.66058688    -0.10700
C801        C  0.15472402  0.75772312  0.78837939    -0.14800
C802        C  0.15154185  0.75378277  0.83327835    -0.28700
C803        C  0.15323643  0.71980199  0.62280546    -0.03000
C804        C  0.15081536  0.72408063  0.57773713    -0.39500
H805        H  0.15190955  0.71163741  0.71455904     0.13300
H806        H  0.15291096  0.72702185  0.78501125     0.12900
H807        H  0.15369196  0.76589835  0.69676265     0.12300
H808        H  0.15311776  0.75053772  0.62639086     0.12600
H809        H  0.15869042  0.76882885  0.78172827     0.15300
H810        H  0.14702703  0.74300220  0.84104090     0.14100
H811        H  0.15670316  0.70854847  0.62931973     0.11800
H812        H  0.14681670  0.73503318  0.56998372     0.13800
C813        C  0.40729053  0.62431883  0.64608652     0.19900
C814        C  0.40949377  0.63928629  0.63604618    -0.18200
C815        C  0.39769740  0.64851242  0.62610241    -0.10500
C816        C  0.38330672  0.64296793  0.62594624     0.22100
C817        C  0.38105727  0.62807470  0.63732909    -0.19800
C818        C  0.39289106  0.61881745  0.64718467    -0.10700
C819        C  0.37040715  0.65249354  0.61613400    -0.14800
C820        C  0.37129463  0.66542544  0.59286428    -0.28700
C821        C  0.42029038  0.61503698  0.65632443    -0.03000
C822        C  0.42048756  0.60027615  0.65222888    -0.39500
H823        H  0.42043321  0.64388438  0.63577849     0.13300
H824        H  0.39996763  0.66001269  0.61953043     0.12900
H825        H  0.37008930  0.62356655  0.63848455     0.12300
H826        H  0.39065617  0.60747409  0.65633968     0.12600
H827        H  0.35978327  0.64868681  0.62838357     0.15300
H828        H  0.38165878  0.66925551  0.57883558     0.14100
H829        H  0.43038051  0.62070922  0.66549073     0.11800
H830        H  0.41081874  0.59431343  0.64088516     0.13800
C831        C  0.26314586  0.69165138  0.54338644     0.19900
C832        C  0.25376984  0.70381990  0.54468996    -0.18200
C833        C  0.23912032  0.70242272  0.53169922    -0.10500
C834        C  0.23344845  0.68874814  0.51699384     0.22100
C835        C  0.24268033  0.67644452  0.51720312    -0.19800
C836        C  0.25740650  0.67785588  0.53008383    -0.10700
C837        C  0.21785783  0.68697693  0.50304980    -0.14800
C838        C  0.21000962  0.69814965  0.48506209    -0.28700
C839        C  0.27867954  0.69391856  0.55704306    -0.03000
C840        C  0.28966566  0.68482614  0.54505735    -0.39500
H841        H  0.25781564  0.71451441  0.55562175     0.13300
H842        H  0.23224798  0.71205256  0.53408895     0.12900
H843        H  0.23850975  0.66573166  0.50701713     0.12300
H844        H  0.26413221  0.66810074  0.53011647     0.12600
H845        H  0.21277845  0.67622498  0.50723924     0.15300
H846        H  0.21518159  0.70871241  0.47837268     0.14100
H847        H  0.28129184  0.70400554  0.57601980     0.11800
H848        H  0.28760276  0.67493831  0.52459128     0.13800
C849        C  0.37569309  0.83896753  0.09642174     0.19900
C850        C  0.37245136  0.85359956  0.10841460    -0.18200
C851        C  0.38364814  0.86389708  0.11566506    -0.10500
C852        C  0.39837602  0.85975624  0.11066123     0.22100
C853        C  0.40158810  0.84521065  0.09790132    -0.19800
C854        C  0.39042573  0.83496300  0.09040317    -0.10700
C855        C  0.41074250  0.86994211  0.12061049    -0.14800
C856        C  0.40973536  0.88470810  0.11982862    -0.28700
C857        C  0.36346392  0.82828171  0.09026549    -0.03000
C858        C  0.36522533  0.81358585  0.09191235    -0.39500
H859        H  0.36121315  0.85701370  0.11308833     0.13300
H860        H  0.38069940  0.87491438  0.12641732     0.12900
H861        H  0.41282646  0.84174705  0.09360075     0.12300
H862        H  0.39348769  0.82399946  0.07953578     0.12600
H863        H  0.42128880  0.86499357  0.12813298     0.15300
H864        H  0.39957741  0.89003524  0.11016304     0.14100
H865        H  0.35252174  0.83268472  0.08581135     0.11800
H866        H  0.37588009  0.80883382  0.09836254     0.13800
C867        C  0.23006822  0.79764799  0.00269005     0.19900
C868        C  0.23589781  0.80056410  0.04784941    -0.18200
C869        C  0.25089037  0.79900307  0.05653207    -0.10500
C870        C  0.26035308  0.79458986  0.01990232     0.22100
C871        C  0.25463061  0.79243587  0.97427334    -0.19800
C872        C  0.23971160  0.79408817  0.96554657    -0.10700
C873        C  0.27592899  0.79089365  0.02823251    -0.14800
C874        C  0.28408599  0.79615538  0.06418124    -0.28700
C875        C  0.21390618  0.79773152  0.99615795    -0.03000
C876        C  0.20714145  0.78978416  0.96228378    -0.39500
H877        H  0.22874616  0.80345154  0.07700154     0.13300
H878        H  0.25487090  0.80059675  0.09229479     0.12900
H879        H  0.26171510  0.78919349  0.94532387     0.12300
H880        H  0.23581285  0.79236372  0.92977191     0.12600
H881        H  0.28102005  0.78354855  0.00270547     0.15300
H882        H  0.27971128  0.80425015  0.08858972     0.14100
H883        H  0.20732387  0.80343505  0.02240866     0.11800
H884        H  0.21346386  0.78331024  0.93739734     0.13800
C885        C  0.33680821  0.74404417  0.87758687     0.19900
C886        C  0.32842605  0.73161454  0.86603680    -0.18200
C887        C  0.32873724  0.72575882  0.82024316    -0.10500
C888        C  0.33773680  0.73206193  0.78504055     0.22100
C889        C  0.34627977  0.74438933  0.79687380    -0.19800
C890        C  0.34588425  0.75030674  0.84265641    -0.10700
C891        C  0.33828543  0.72640206  0.73550031    -0.14800
C892        C  0.33340556  0.71300618  0.72267277    -0.28700
C893        C  0.33572837  0.75011410  0.92633082    -0.03000
C894        C  0.33808186  0.76437113  0.93672103    -0.39500
H895        H  0.32133526  0.72660319  0.89231028     0.13300
H896        H  0.32165262  0.71651986  0.81273536     0.12900
H897        H  0.35333223  0.74944791  0.77059606     0.12300
H898        H  0.35280128  0.75966335  0.85058850     0.12600
H899        H  0.34319310  0.73344625  0.70863927     0.15300
H900        H  0.32898422  0.70544867  0.74875766     0.14100
H901        H  0.33186477  0.74277039  0.95413509     0.11800
H902        H  0.34110975  0.77212348  0.90909675     0.13800
C903        C  0.33853047  0.73033487  0.36966812     0.19900
C904        C  0.33347098  0.72427786  0.32685159    -0.18200
C905        C  0.33218765  0.73293260  0.28604668    -0.10500
C906        C  0.33609438  0.74792341  0.28692540     0.22100
C907        C  0.34130448  0.75396572  0.32953988    -0.19800
C908        C  0.34261060  0.74529840  0.37039414    -0.10700
C909        C  0.33441562  0.75772254  0.24489765    -0.14800
C910        C  0.33358314  0.75280592  0.19992145    -0.28700
C911        C  0.33895669  0.72064946  0.41239736    -0.03000
C912        C  0.34110927  0.72536975  0.45719677    -0.39500
H913        H  0.33019763  0.71281809  0.32513858     0.13300
H914        H  0.32776573  0.72787012  0.25445214     0.12900
H915        H  0.34439492  0.76547535  0.33124779     0.12300
H916        H  0.34680189  0.75045808  0.40210804     0.12600
H917        H  0.33425906  0.76952383  0.25119449     0.15300
H918        H  0.33448411  0.74115858  0.19219092     0.14100
H919        H  0.33660766  0.70903817  0.40685514     0.11800
H920        H  0.34315382  0.73687376  0.46480017     0.13800
C921        C  0.59580706  0.62917697  0.14781135     0.19900
C922        C  0.59249964  0.64418946  0.14322655    -0.18200
C923        C  0.60347555  0.65453702  0.13414269    -0.10500
C924        C  0.61810763  0.65009391  0.12920007     0.22100
C925        C  0.62152497  0.63517235  0.13538931    -0.19800
C926        C  0.61052105  0.62478751  0.14442430    -0.10700
C927        C  0.63004605  0.66073689  0.11840215    -0.14800
C928        C  0.62774955  0.67348563  0.09534638    -0.28700
C929        C  0.58354977  0.61870550  0.15696803    -0.03000
C930        C  0.58446921  0.60394737  0.15335573    -0.39500
H931        H  0.58132555  0.64795247  0.14651101     0.13300
H932        H  0.60042997  0.66600017  0.13161668     0.12900
H933        H  0.63274255  0.63150370  0.13264435     0.12300
H934        H  0.61368237  0.61343582  0.14908704     0.12600
H935        H  0.64112785  0.65774855  0.12822190     0.15300
H936        H  0.61687327  0.67637489  0.08334713     0.14100
H937        H  0.57301906  0.62348249  0.16577864     0.11800
H938        H  0.59459714  0.59869147  0.14311803     0.13800
C939        C  0.60638230  0.84615802  0.58968711     0.19900
C940        C  0.60859950  0.85942278  0.61419128    -0.18200
C941        C  0.59698841  0.86906667  0.62246043    -0.10500
C942        C  0.58283586  0.86564654  0.60617940     0.22100
C943        C  0.58070520  0.85256288  0.58062129    -0.19800
C944        C  0.59230201  0.84291227  0.57243263    -0.10700
C945        C  0.57018389  0.87568950  0.61294110    -0.14800
C946        C  0.56960522  0.88628775  0.64626690    -0.28700
C947        C  0.61904271  0.83616626  0.58238468    -0.03000
C948        C  0.61765509  0.82169105  0.57330881    -0.39500
H949        H  0.61936767  0.86231759  0.62721334     0.13300
H950        H  0.59926223  0.87926598  0.64078114     0.12900
H951        H  0.56999488  0.84978689  0.56685778     0.12300
H952        H  0.59017301  0.83309267  0.55191094     0.12600
H953        H  0.56085514  0.87419002  0.58956193     0.15300
H954        H  0.57850191  0.88777676  0.67119739     0.14100
H955        H  0.62992916  0.84075073  0.58716767     0.11800
H956        H  0.60694041  0.81663013  0.57082977     0.13800
C957        C  0.65245255  0.75845022  0.35666336     0.19900
C958        C  0.65156143  0.76488705  0.31147739    -0.18200
C959        C  0.65279780  0.75631443  0.27047141    -0.10500
C960        C  0.65496625  0.74100845  0.27379796     0.22100
C961        C  0.65583883  0.73458196  0.31899248    -0.19800
C962        C  0.65461743  0.74314921  0.35995278    -0.10700
C963        C  0.65705833  0.73140421  0.23157184    -0.14800
C964        C  0.65395244  0.73538715  0.18669965    -0.28700
C965        C  0.65209677  0.76818989  0.39911132    -0.03000
C966        C  0.64977793  0.76335381  0.44364562    -0.39500
H967        H  0.65010505  0.77666457  0.30785326     0.13300
H968        H  0.65242562  0.76185889  0.23659548     0.12900
H969        H  0.65767706  0.72286146  0.32269116     0.12300
H970        H  0.65584126  0.73773066  0.39383369     0.12600
H971        H  0.66126620  0.72039925  0.23789740     0.15300
H972        H  0.64931447  0.74606731  0.17885252     0.14100
H973        H  0.65400119  0.77987705  0.39342044     0.11800
H974        H  0.64727660  0.75188110  0.45051549     0.13800
C975        C  0.65027007  0.74092210  0.86134562     0.19900
C976        C  0.64791232  0.75608802  0.85572414    -0.18200
C977        C  0.64776338  0.76249946  0.81061636    -0.10500
C978        C  0.64998452  0.75383146  0.76990986     0.22100
C979        C  0.65187142  0.73861269  0.77536444    -0.19800
C980        C  0.65201925  0.73219530  0.82044815    -0.10700
C981        C  0.65006727  0.76011795  0.72121095    -0.14800
C982        C  0.65300883  0.77432956  0.71166026    -0.28700
C983        C  0.65085570  0.73480359  0.91036862    -0.03000
C984        C  0.65602272  0.72135755  0.92121092    -0.39500
H985        H  0.64629537  0.76305521  0.88644707     0.13300
H986        H  0.64573100  0.77418525  0.80795794     0.12900
H987        H  0.65335670  0.73164897  0.74455951     0.12300
H988        H  0.65339906  0.72041716  0.82263380     0.12600
H989        H  0.64822670  0.75258618  0.69184541     0.15300
H990        H  0.65560013  0.78197383  0.73998516     0.14100
H991        H  0.64748200  0.74198416  0.93917008     0.11800
H992        H  0.65985204  0.71396855  0.89380890     0.13800
C993        C  0.73271121  0.68925444  0.04751493     0.19900
C994        C  0.73960935  0.67948636  0.01604114    -0.18200
C995        C  0.75475302  0.68028794  0.00826878    -0.10500
C996        C  0.76327365  0.69085891  0.03226336     0.22100
C997        C  0.75642812  0.70013913  0.06513382    -0.19800
C998        C  0.74142187  0.69926483  0.07311433    -0.10700
C999        C  0.77910563  0.69330328  0.02311871    -0.14800
C1000       C  0.78811138  0.68393592  0.00052175    -0.28700
C1001       C  0.71645964  0.68912986  0.05201815    -0.03000
C1002       C  0.70894766  0.70116468  0.06535801    -0.39500
H1003       H  0.73320058  0.67155023  0.99624493     0.13300
H1004       H  0.75957847  0.67297343  0.98245027     0.12900
H1005       H  0.76272410  0.70824612  0.08462313     0.12300
H1006       H  0.73674702  0.70653006  0.09936748     0.12600
H1007       H  0.78370485  0.70349572  0.03685538     0.15300
H1008       H  0.78422831  0.67336542  0.98779929     0.14100
H1009       H  0.71051386  0.67932669  0.04112823     0.11800
H1010       H  0.71469944  0.71132314  0.07321280     0.13800
C1011       C  0.72694161  0.79453302  0.55325798     0.19900
C1012       C  0.73578969  0.78219272  0.56123868    -0.18200
C1013       C  0.75078321  0.78277155  0.55274460    -0.10500
C1014       C  0.75735849  0.79575424  0.53587749     0.22100
C1015       C  0.74869172  0.80831364  0.52959490    -0.19800
C1016       C  0.73358512  0.80772233  0.53785848    -0.10700
C1017       C  0.77323040  0.79629968  0.52498583    -0.14800
C1018       C  0.78020013  0.78456863  0.50691875    -0.28700
C1019       C  0.71095462  0.79282000  0.56134706    -0.03000
C1020       C  0.70067661  0.80285534  0.55056224    -0.39500
H1021       H  0.73105959  0.77194913  0.57372853     0.13300
H1022       H  0.75722503  0.77303454  0.55964980     0.12900
H1023       H  0.75357238  0.81850267  0.51729202     0.12300
H1024       H  0.72728324  0.81758598  0.53203109     0.12600
H1025       H  0.77913440  0.80655255  0.53048881     0.15300
H1026       H  0.77406321  0.77465574  0.49851238     0.14100
H1027       H  0.70737314  0.78230701  0.57578142     0.11800
H1028       H  0.70355617  0.81345099  0.53553534     0.13800
C1029       C  0.83386228  0.73030699  0.77592735     0.19900
C1030       C  0.83351185  0.72366402  0.73097882    -0.18200
C1031       C  0.83336141  0.73218839  0.68965800    -0.10500
C1032       C  0.83356694  0.74765641  0.69237128     0.22100
C1033       C  0.83394862  0.75430778  0.73728948    -0.19800
C1034       C  0.83409986  0.74578376  0.77862003    -0.10700
C1035       C  0.83241785  0.75724776  0.64972523    -0.14800
C1036       C  0.83509160  0.75273741  0.60507120    -0.28700
C1037       C  0.83325926  0.72067638  0.81869389    -0.03000
C1038       C  0.83644630  0.72518539  0.86300368    -0.39500
H1039       H  0.83315897  0.71178365  0.72778319     0.13300
H1040       H  0.83263500  0.72655768  0.65598813     0.12900
H1041       H  0.83392212  0.76619284  0.74047213     0.12300
H1042       H  0.83398559  0.75144176  0.81230741     0.12600
H1043       H  0.82914277  0.76860007  0.65546940     0.15300
H1044       H  0.83890797  0.74167354  0.59801031     0.14100
H1045       H  0.83024995  0.70921293  0.81325026     0.11800
H1046       H  0.84009232  0.73635005  0.86973034     0.13800
C1047       C  0.84107711  0.73196871  0.19013535     0.19900
C1048       C  0.84017442  0.74731516  0.19543932    -0.18200
C1049       C  0.83988801  0.75375944  0.24044398    -0.10500
C1050       C  0.84042987  0.74495822  0.28144834     0.22100
C1051       C  0.84183659  0.72967400  0.27632465    -0.19800
C1052       C  0.84207956  0.72320336  0.23128608    -0.10700
C1053       C  0.83952285  0.75129213  0.32997516    -0.14800
C1054       C  0.83258361  0.76397608  0.33962010    -0.28700
C1055       C  0.84064894  0.72579364  0.14111306    -0.03000
C1056       C  0.84083861  0.71134539  0.13035836    -0.39500
H1057       H  0.83956744  0.75438593  0.16454705     0.13300
H1058       H  0.83932334  0.76562524  0.24285103     0.12900
H1059       H  0.84243993  0.72266589  0.30736773     0.12300
H1060       H  0.84293953  0.71137514  0.22942389     0.12600
H1061       H  0.84390498  0.74483557  0.35912513     0.15300
H1062       H  0.82743587  0.77021172  0.31141269     0.14100
H1063       H  0.83971198  0.73364102  0.11215184     0.11800
H1064       H  0.84162202  0.70303389  0.15774225     0.13800
C1065       C  0.11005464  0.64784113  0.42390204     0.19900
C1066       C  0.09606265  0.65105344  0.40631353    -0.18200
C1067       C  0.08595407  0.63982990  0.39707830    -0.10500
C1068       C  0.08962507  0.62499520  0.40513438     0.22100
C1069       C  0.10357582  0.62179485  0.42303950    -0.19800
C1070       C  0.11367425  0.63302015  0.43236578    -0.10700
C1071       C  0.07926780  0.61252959  0.39690033    -0.14800
C1072       C  0.06625926  0.61371296  0.37487322    -0.28700
C1073       C  0.12032958  0.66032732  0.43281560    -0.03000
C1074       C  0.13451260  0.65890389  0.44489798    -0.39500
H1075       H  0.09289593  0.66234915  0.39969879     0.13300
H1076       H  0.07529805  0.64297365  0.38427124     0.12900
H1077       H  0.10669617  0.61050801  0.43001395     0.12300
H1078       H  0.12417724  0.62990515  0.44649080     0.12600
H1079       H  0.08256467  0.60175447  0.40971578     0.15300
H1080       H  0.06257360  0.62414546  0.36079196     0.14100
H1081       H  0.11604135  0.67136272  0.42778655     0.11800
H1082       H  0.13943730  0.64817842  0.44932088     0.13800
C1083       C  0.87962628  0.64094355  0.93044394     0.19900
C1084       C  0.87653640  0.62580209  0.93012347    -0.18200
C1085       C  0.88720688  0.61558179  0.91714626    -0.10500
C1086       C  0.90129174  0.62031619  0.90378631     0.22100
C1087       C  0.90428248  0.63548888  0.90324351    -0.19800
C1088       C  0.89361472  0.64569851  0.91622754    -0.10700
C1089       C  0.91335478  0.61001553  0.89151539    -0.14800
C1090       C  0.91206148  0.59526029  0.88886980    -0.28700
C1091       C  0.86780486  0.65131222  0.94434748    -0.03000
C1092       C  0.87003441  0.66551160  0.95598717    -0.39500
H1093       H  0.86582089  0.62182665  0.94043339     0.13300
H1094       H  0.88428779  0.60406973  0.91831765     0.12900
H1095       H  0.91497481  0.63949782  0.89279735     0.12300
H1096       H  0.89640560  0.65724658  0.91437646     0.12600
H1097       H  0.92403204  0.61489789  0.88499607     0.15300
H1098       H  0.90166278  0.58980531  0.89429961     0.14100
H1099       H  0.85672016  0.64698886  0.94539620     0.11800
H1100       H  0.88095685  0.67014075  0.95678796     0.13800
C1101       C  0.00109274  0.57800944  0.15413287     0.19900
C1102       C  0.00763349  0.57613446  0.10943850    -0.18200
C1103       C  0.99914510  0.57468760  0.06843844    -0.10500
C1104       C  0.98379816  0.57513722  0.07109262     0.22100
C1105       C  0.97723686  0.57700147  0.11570889    -0.19800
C1106       C  0.98572469  0.57845732  0.15674962    -0.10700
C1107       C  0.97423768  0.57301690  0.02883149    -0.14800
C1108       C  0.97874601  0.57472163  0.98364737    -0.28700
C1109       C  0.01078507  0.57884729  0.19664893    -0.03000
C1110       C  0.00618899  0.58100124  0.24156634    -0.39500
H1111       H  0.01941744  0.57558318  0.10622282     0.13300
H1112       H  0.00470188  0.57284374  0.03514796     0.12900
H1113       H  0.96544133  0.57725926  0.11890099     0.12300
H1114       H  0.98008212  0.57970995  0.19011945     0.12600
H1115       H  0.96287346  0.57012508  0.03532795     0.15300
H1116       H  0.98981708  0.57824967  0.97585083     0.14100
H1117       H  0.02240456  0.57721851  0.19065838     0.11800
H1118       H  0.99475030  0.58266354  0.24962636     0.13800
C1119       C  0.98871122  0.57571447  0.66300848     0.19900
C1120       C  0.99916673  0.56569766  0.64650013    -0.18200
C1121       C  0.00513829  0.56704821  0.60110204    -0.10500
C1122       C  0.00095969  0.57866918  0.57096013     0.22100
C1123       C  0.99057966  0.58879202  0.58757577    -0.19800
C1124       C  0.98455249  0.58740708  0.63308785    -0.10700
C1125       C  0.00679441  0.58034282  0.52174731    -0.14800
C1126       C  0.01867421  0.57320138  0.50561838    -0.28700
C1127       C  0.98241058  0.57324519  0.71117217    -0.03000
C1128       C  0.97039713  0.57997189  0.72797754    -0.39500
H1129       H  0.00255599  0.55655660  0.66855616     0.13300
H1130       H  0.01274499  0.55869426  0.58985046     0.12900
H1131       H  0.98711935  0.59783897  0.56524451     0.12300
H1132       H  0.97674242  0.59557416  0.64436863     0.12600
H1133       H  0.00115034  0.58783462  0.49797169     0.15300
H1134       H  0.02489225  0.56607710  0.52878223     0.14100
H1135       H  0.98752378  0.56486272  0.73306510     0.11800
H1136       H  0.96466740  0.58808522  0.70693719     0.13800
C1137       C  0.11328217  0.33460558  0.11694006     0.19900
C1138       C  0.11656316  0.34699210  0.14492469    -0.18200
C1139       C  0.10563510  0.35696446  0.15807356    -0.10500
C1140       C  0.09111866  0.35481350  0.14315220     0.22100
C1141       C  0.08786803  0.34252749  0.11478948    -0.19800
C1142       C  0.09878617  0.33260910  0.10146051    -0.10700
C1143       C  0.07894659  0.36478456  0.15708717    -0.14800
C1144       C  0.08065001  0.37889663  0.17095595    -0.28700
C1145       C  0.12525180  0.32405645  0.10539132    -0.03000
C1146       C  0.12304684  0.31016337  0.09004545    -0.39500
H1147       H  0.12761097  0.34883614  0.15741275     0.13300
H1148       H  0.10857206  0.36611218  0.18069937     0.12900
H1149       H  0.07679745  0.34062385  0.10259418     0.12300
H1150       H  0.09574616  0.32350396  0.07885693     0.12600
H1151       H  0.06791667  0.36045634  0.15342456     0.15300
H1152       H  0.09143392  0.38385150  0.17262837     0.14100
H1153       H  0.13638160  0.32760987  0.11263707     0.11800
H1154       H  0.11208718  0.30597524  0.08445118     0.13800
C1155       C  0.04852479  0.47753917  0.26253435     0.19900
C1156       C  0.06016031  0.48766041  0.26340253    -0.18200
C1157       C  0.05804699  0.50210910  0.27962548    -0.10500
C1158       C  0.04420660  0.50666039  0.29587735     0.22100
C1159       C  0.03268048  0.49643143  0.29548252    -0.19800
C1160       C  0.03478569  0.48208463  0.27932742    -0.10700
C1161       C  0.04099786  0.52176945  0.31368732    -0.14800
C1162       C  0.05064740  0.53296858  0.31685267    -0.28700
C1163       C  0.05103650  0.46216756  0.24593504    -0.03000
C1164       C  0.04022591  0.45383020  0.22773086    -0.39500
H1165       H  0.07089561  0.48440207  0.25119408     0.13300
H1166       H  0.06728555  0.50953457  0.27931459     0.12900
H1167       H  0.02193726  0.49951351  0.30813340     0.12300
H1168       H  0.02564983  0.47452355  0.28112129     0.12600
H1169       H  0.02978980  0.52383606  0.32454616     0.15300
H1170       H  0.06193484  0.53162778  0.30619708     0.14100
H1171       H  0.06197704  0.45764372  0.24868971     0.11800
H1172       H  0.02946831  0.45853257  0.22245459     0.13800
C1173       C  0.93556965  0.46981645  0.75590742     0.19900
C1174       C  0.93338624  0.47393188  0.80338477    -0.18200
C1175       C  0.93333706  0.48877981  0.81658209    -0.10500
C1176       C  0.93540006  0.49986988  0.78231821     0.22100
C1177       C  0.93683740  0.49576595  0.73452937    -0.19800
C1178       C  0.93695023  0.48092692  0.72137094    -0.10700
C1179       C  0.93626476  0.51577612  0.79467774    -0.14800
C1180       C  0.94015136  0.52084194  0.83779071    -0.28700
C1181       C  0.93671176  0.45388820  0.74418498    -0.03000
C1182       C  0.94424540  0.44881256  0.70660416    -0.39500
H1183       H  0.93205850  0.46560740  0.83059817     0.13300
H1184       H  0.93167259  0.49146882  0.85354841     0.12900
H1185       H  0.93818498  0.50408080  0.70729154     0.12300
H1186       H  0.93812374  0.47825256  0.68418763     0.12600
H1187       H  0.93477140  0.52364116  0.76601873     0.15300
H1188       H  0.94251878  0.51326785  0.86649863     0.14100
H1189       H  0.93243729  0.44603818  0.76983711     0.11800
H1190       H  0.94943181  0.45641743  0.68211044     0.13800
C1191       C  0.01072214  0.39735537  0.40428699     0.19900
C1192       C  0.01686510  0.39886305  0.44966353    -0.18200
C1193       C  0.00804648  0.39899522  0.49024455    -0.10500
C1194       C  0.99275555  0.39765010  0.48639048     0.22100
C1195       C  0.98661691  0.39608787  0.44099046    -0.19800
C1196       C  0.99544267  0.39593978  0.40041088    -0.10700
C1197       C  0.98275083  0.39861560  0.52809685    -0.14800
C1198       C  0.98706985  0.39765459  0.57370299    -0.28700
C1199       C  0.02050054  0.39852875  0.36209034    -0.03000
C1200       C  0.01677273  0.39423535  0.31795489    -0.39500
H1201       H  0.02856764  0.40019193  0.45372368     0.13300
H1202       H  0.01331093  0.40059305  0.52413873     0.12900
H1203       H  0.97487827  0.39520800  0.43678344     0.12300
H1204       H  0.99015454  0.39521051  0.36622141     0.12600
H1205       H  0.97119442  0.40016921  0.52077743     0.15300
H1206       H  0.99838583  0.39556273  0.58262033     0.14100
H1207       H  0.03118174  0.40352168  0.36753588     0.11800
H1208       H  0.00638378  0.38884014  0.31141880     0.13800
C1209       C  0.00690886  0.39999673  0.98738573     0.19900
C1210       C  0.99255167  0.39500659  0.98017778    -0.18200
C1211       C  0.98624227  0.39527796  0.93496221    -0.10500
C1212       C  0.99427608  0.40041244  0.89558294     0.22100
C1213       C  0.00868812  0.40525040  0.90280076    -0.19800
C1214       C  0.01497816  0.40499323  0.94797554    -0.10700
C1215       C  0.98806092  0.40143388  0.84681058    -0.14800
C1216       C  0.97527281  0.39540524  0.83322352    -0.28700
C1217       C  0.01312425  0.39953673  0.03620274    -0.03000
C1218       C  0.02462048  0.40773806  0.05014391    -0.39500
H1219       H  0.98609919  0.39105726  0.00983489     0.13300
H1220       H  0.97503597  0.39167809  0.93161395     0.12900
H1221       H  0.01516579  0.40922575  0.87323445     0.12300
H1222       H  0.02621568  0.40851681  0.95146637     0.12600
H1223       H  0.99435653  0.40757524  0.82069089     0.15300
H1224       H  0.96875278  0.38892815  0.85764148     0.14100
H1225       H  0.00772488  0.39250831  0.06209932     0.11800
H1226       H  0.02981844  0.41535841  0.02575677     0.13800
C1227       C  0.09281160  0.11281682  0.65266648     0.19900
C1228       C  0.10791080  0.11069696  0.64737026    -0.18200
C1229       C  0.11706434  0.12240635  0.63415662    -0.10500
C1230       C  0.11120940  0.13647997  0.62561949     0.22100
C1231       C  0.09608086  0.13846549  0.62993127    -0.19800
C1232       C  0.08698378  0.12682577  0.64316534    -0.10700
C1233       C  0.12019901  0.14936415  0.61094031    -0.14800
C1234       C  0.13481957  0.15032396  0.61520944    -0.28700
C1235       C  0.08324716  0.10009316  0.66492709    -0.03000
C1236       C  0.07001981  0.10178491  0.68494426    -0.39500
H1237       H  0.11263077  0.09994244  0.65342012     0.13300
H1238       H  0.12859961  0.12027020  0.62994431     0.12900
H1239       H  0.09122812  0.14910155  0.62281792     0.12300
H1240       H  0.07535375  0.12882427  0.64461235     0.12600
H1241       H  0.11431909  0.15886867  0.59747374     0.15300
H1242       H  0.14111238  0.14134331  0.63001067     0.14100
H1243       H  0.08699215  0.08911251  0.65584775     0.11800
H1244       H  0.06634620  0.11261506  0.69573493     0.13800
C1245       C  0.00332196  0.07510509  0.89719565     0.19900
C1246       C  0.00933044  0.07113061  0.94115496    -0.18200
C1247       C  0.00085501  0.07121033  0.98232858    -0.10500
C1248       C  0.98607927  0.07538468  0.98060762     0.22100
C1249       C  0.98006420  0.07948156  0.93674734    -0.19800
C1250       C  0.98855142  0.07937601  0.89544310    -0.10700
C1251       C  0.97640787  0.07482056  0.02299310    -0.14800
C1252       C  0.98132655  0.07432657  0.06797938    -0.28700
C1253       C  0.01272937  0.07375729  0.85435099    -0.03000
C1254       C  0.00897263  0.07803863  0.81028910    -0.39500
H1255       H  0.02061745  0.06764645  0.94358493     0.13300
H1256       H  0.00588500  0.06754519  0.01489782     0.12900
H1257       H  0.96867602  0.08261538  0.93430968     0.12300
H1258       H  0.98332299  0.08232229  0.86246975     0.12600
H1259       H  0.96468125  0.07491046  0.01682332     0.15300
H1260       H  0.99291115  0.07493683  0.07569568     0.14100
H1261       H  0.02331937  0.06858941  0.85933150     0.11800
H1262       H  0.99865709  0.08342999  0.80335563     0.13800
C1263       C  0.00281105  0.07325541  0.48132461     0.19900
C1264       C  0.99164666  0.08296637  0.46837510    -0.18200
C1265       C  0.98615001  0.08304825  0.42213798    -0.10500
C1266       C  0.99146410  0.07309032  0.38796758     0.22100
C1267       C  0.00274567  0.06345172  0.40091162    -0.19800
C1268       C  0.00834331  0.06347638  0.44710484    -0.10700
C1269       C  0.98545833  0.07230305  0.33887907    -0.14800
C1270       C  0.97223268  0.07756965  0.32690755    -0.28700
C1271       C  0.00805153  0.07327215  0.53113751    -0.03000
C1272       C  0.02173536  0.06953703  0.54332159    -0.39500
H1273       H  0.98724731  0.09063028  0.49406971     0.13300
H1274       H  0.97783198  0.09102397  0.41357243     0.12900
H1275       H  0.00705739  0.05567182  0.37542976     0.12300
H1276       H  0.01671846  0.05558306  0.45615099     0.12600
H1277       H  0.99178912  0.06646288  0.31227718     0.15300
H1278       H  0.96534471  0.08278525  0.35319994     0.14100
H1279       H  0.00051272  0.07691681  0.55849528     0.11800
H1280       H  0.02964615  0.06665539  0.51620497     0.13800
C1281       C  0.08628975  0.85364749  0.89302222     0.19900
C1282       C  0.10003093  0.85695730  0.91262863    -0.18200
C1283       C  0.11014399  0.84581468  0.92221165    -0.10500
C1284       C  0.10676916  0.83102902  0.91200122     0.22100
C1285       C  0.09305908  0.82771332  0.89238749    -0.19800
C1286       C  0.08297906  0.83884088  0.88262173    -0.10700
C1287       C  0.11697303  0.81868687  0.92217001    -0.14800
C1288       C  0.13150619  0.82027367  0.92797373    -0.28700
C1289       C  0.07585272  0.86595683  0.88432591    -0.03000
C1290       C  0.06160695  0.86411736  0.87363309    -0.39500
H1291       H  0.10290720  0.86822622  0.92114693     0.13300
H1292       H  0.12042260  0.84885279  0.93840827     0.12900
H1293       H  0.09015854  0.81642807  0.88416502     0.12300
H1294       H  0.07272884  0.83566488  0.86663462     0.12600
H1295       H  0.11232431  0.80766348  0.92329941     0.15300
H1296       H  0.13663076  0.83101281  0.92508606     0.14100
H1297       H  0.08000848  0.87710569  0.88847672     0.11800
H1298       H  0.05688622  0.85322746  0.87032158     0.13800
C1299       C  0.04573158  0.99953791  0.76920748     0.19900
C1300       C  0.05764415  0.99037186  0.77927982    -0.18200
C1301       C  0.05539232  0.97628436  0.79833760    -0.10500
C1302       C  0.04113866  0.97127048  0.80833427     0.22100
C1303       C  0.02932460  0.98067472  0.79975578    -0.19800
C1304       C  0.03155409  0.99460394  0.78026771    -0.10700
C1305       C  0.03792935  0.95643583  0.82784967    -0.14800
C1306       C  0.04660621  0.94465905  0.82208332    -0.28700
C1307       C  0.04820795  0.01451672  0.74965625    -0.03000
C1308       C  0.03850217  0.02087611  0.72042400    -0.39500
H1309       H  0.06868335  0.99407596  0.77200465     0.13300
H1310       H  0.06480035  0.96949523  0.80575490     0.12900
H1311       H  0.01826326  0.97717247  0.80775779     0.12300
H1312       H  0.02216032  0.00160025  0.77474950     0.12600
H1313       H  0.02731353  0.95488446  0.84450010     0.15300
H1314       H  0.05701826  0.94565048  0.80392810     0.14100
H1315       H  0.05794778  0.02051284  0.76042794     0.11800
H1316       H  0.02913920  0.01460599  0.70792359     0.13800
C1317       C  0.87041602  0.83920712  0.44969867     0.19900
C1318       C  0.86871130  0.84983840  0.41397300    -0.18200
C1319       C  0.88023203  0.85927170  0.40172918    -0.10500
C1320       C  0.89372973  0.85836576  0.42546001     0.22100
C1321       C  0.89533583  0.84793477  0.46178812    -0.19800
C1322       C  0.88381612  0.83855908  0.47415132    -0.10700
C1323       C  0.90654743  0.86768780  0.41279973    -0.14800
C1324       C  0.90574015  0.88035049  0.38812463    -0.28700
C1325       C  0.85815992  0.82876719  0.45912821    -0.03000
C1326       C  0.85993964  0.81572034  0.48093635    -0.39500
H1327       H  0.85852877  0.85060370  0.39455869     0.13300
H1328       H  0.87857442  0.86692726  0.37288978     0.12900
H1329       H  0.90557462  0.84704367  0.48083992     0.12300
H1330       H  0.88554346  0.83091039  0.50294900     0.12600
H1331       H  0.91715827  0.86413922  0.42572480     0.15300
H1332       H  0.89530123  0.88461256  0.37640492     0.14100
H1333       H  0.84752175  0.83138526  0.44426997     0.11800
H1334       H  0.87055645  0.81243913  0.49411879     0.13800
C1335       C  0.92900297  0.97496222  0.28413230     0.19900
C1336       C  0.92836122  0.97928916  0.23632403    -0.18200
C1337       C  0.92843108  0.99419419  0.22373137    -0.10500
C1338       C  0.92915278  0.00517881  0.25886775     0.22100
C1339       C  0.92891568  0.00086709  0.30672030    -0.19800
C1340       C  0.92884915  0.98595783  0.31932351    -0.10700
C1341       C  0.93067594  0.02113915  0.24735066    -0.14800
C1342       C  0.93619017  0.02616296  0.20603920    -0.28700
C1343       C  0.93010546  0.95894991  0.29535405    -0.03000
C1344       C  0.93494508  0.95358618  0.33708822    -0.39500
H1345       H  0.92815844  0.97108830  0.20844231     0.13300
H1346       H  0.92800665  0.99699260  0.18647809     0.12900
H1347       H  0.92918539  0.00907587  0.33457145     0.12300
H1348       H  0.92875629  0.98318890  0.35660934     0.12600
H1349       H  0.92857877  0.02898211  0.27563685     0.15300
H1350       H  0.93925622  0.01854254  0.17821792     0.14100
H1351       H  0.92779508  0.95124563  0.26680982     0.11800
H1352       H  0.93792609  0.96093896  0.36576953     0.13800
C1353       C  0.99697574  0.89837287  0.64937955     0.19900
C1354       C  0.00304643  0.89567777  0.60445829    -0.18200
C1355       C  0.99465128  0.89712592  0.56319992    -0.10500
C1356       C  0.97988166  0.90138439  0.56589828     0.22100
C1357       C  0.97381705  0.90401947  0.61088284    -0.19800
C1358       C  0.98220982  0.90258011  0.65208420    -0.10700
C1359       C  0.97043169  0.90363128  0.52331547    -0.14800
C1360       C  0.97432495  0.90053446  0.47829074    -0.28700
C1361       C  0.00664517  0.89755721  0.69190373    -0.03000
C1362       C  0.00177987  0.89696859  0.73701389    -0.39500
H1363       H  0.01441999  0.89256403  0.60119065     0.13300
H1364       H  0.99995020  0.89511753  0.52961971     0.12900
H1365       H  0.96252574  0.90741471  0.61421419     0.12300
H1366       H  0.97711819  0.90518616  0.68560894     0.12600
H1367       H  0.95956208  0.90802249  0.52951727     0.15300
H1368       H  0.98490748  0.89587724  0.47021325     0.14100
H1369       H  0.01836969  0.89759337  0.68569273     0.11800
H1370       H  0.99018415  0.89643097  0.74462701     0.13800
C1371       C  0.98129454  0.90088280  0.15540602     0.19900
C1372       C  0.98859113  0.91272619  0.13372961    -0.18200
C1373       C  0.99491545  0.91122084  0.08891922    -0.10500
C1374       C  0.99421240  0.89772657  0.06463032     0.22100
C1375       C  0.98676010  0.88589839  0.08585869    -0.19800
C1376       C  0.98044923  0.88738459  0.13092880    -0.10700
C1377       C  0.00075186  0.89586043  0.01665415    -0.14800
C1378       C  0.01235800  0.90374684  0.00169140    -0.28700
C1379       C  0.97486164  0.90332071  0.20332268    -0.03000
C1380       C  0.96561901  0.89404531  0.22561280    -0.39500
H1381       H  0.98931726  0.92328679  0.15141701     0.13300
H1382       H  0.00010567  0.92075358  0.07313695     0.12900
H1383       H  0.98597558  0.87541544  0.06773792     0.12300
H1384       H  0.97509222  0.87789595  0.14625841     0.12600
H1385       H  0.99611261  0.88751389  0.99346994     0.15300
H1386       H  0.01766850  0.91147607  0.02547428     0.14100
H1387       H  0.97749013  0.91370268  0.22053734     0.11800
H1388       H  0.96225005  0.88377894  0.20938301     0.13800
C1389       C  0.59444575  0.35925033  0.37415104     0.19900
C1390       C  0.60899956  0.35925769  0.35862658    -0.18200
C1391       C  0.61856235  0.34805242  0.37230337    -0.10500
C1392       C  0.61381042  0.33666485  0.40268596     0.22100
C1393       C  0.59932284  0.33688545  0.41906953    -0.19800
C1394       C  0.58975539  0.34805049  0.40519240    -0.10700
C1395       C  0.62324041  0.32399286  0.41624242    -0.14800
C1396       C  0.63775817  0.32343201  0.40877055    -0.28700
C1397       C  0.58455422  0.37122267  0.35818005    -0.03000
C1398       C  0.56998264  0.36952526  0.35509095    -0.39500
H1399       H  0.61290840  0.36780842  0.33495928     0.13300
H1400       H  0.62949405  0.34828969  0.35791381     0.12900
H1401       H  0.59535087  0.32833037  0.44261480     0.12300
H1402       H  0.57876235  0.34793000  0.41929280     0.12600
H1403       H  0.61789474  0.31453464  0.43242231     0.15300
H1404       H  0.64360377  0.33274555  0.39398144     0.14100
H1405       H  0.58945522  0.38162619  0.34752867     0.11800
H1406       H  0.56497283  0.35899064  0.36335408     0.13800
C1407       C  0.59104929  0.13094449  0.84609623     0.19900
C1408       C  0.60582767  0.12728721  0.85220663    -0.18200
C1409       C  0.61590579  0.13777190  0.86852518    -0.10500
C1410       C  0.61134378  0.15217112  0.87937030     0.22100
C1411       C  0.59652606  0.15570369  0.87427256    -0.19800
C1412       C  0.58648990  0.14526863  0.85793603    -0.10700
C1413       C  0.62144261  0.16378541  0.89716786    -0.14800
C1414       C  0.63602538  0.16363107  0.89118282    -0.28700
C1415       C  0.58059452  0.11942967  0.82947770    -0.03000
C1416       C  0.56756940  0.12260436  0.80990010    -0.39500
H1417       H  0.60959509  0.11626989  0.84427638     0.13300
H1418       H  0.62713804  0.13444623  0.87330150     0.12900
H1419       H  0.59266324  0.16662968  0.88303384     0.12300
H1420       H  0.57514712  0.14845849  0.85576326     0.12600
H1421       H  0.61651523  0.17334061  0.91388449     0.15300
H1422       H  0.64128920  0.15463118  0.87268339     0.14100
H1423       H  0.58372049  0.10796937  0.83354699     0.11800
H1424       H  0.56441115  0.13394511  0.80399923     0.13800
C1425       C  0.65681449  0.25737658  0.65142260     0.19900
C1426       C  0.66812167  0.25815253  0.68488855    -0.18200
C1427       C  0.66718825  0.25045736  0.72765052    -0.10500
C1428       C  0.65485194  0.24173860  0.73801749     0.22100
C1429       C  0.64321882  0.24151029  0.70551926    -0.19800
C1430       C  0.64417490  0.24920750  0.66253281    -0.10700
C1431       C  0.65375150  0.23284267  0.78227636    -0.14800
C1432       C  0.66552293  0.22838279  0.80697876    -0.28700
C1433       C  0.65877152  0.26532345  0.60578547    -0.03000
C1434       C  0.65169784  0.26193653  0.56535006    -0.39500
H1435       H  0.67785571  0.26459643  0.67763901     0.13300
H1436       H  0.67613414  0.25150612  0.75244867     0.12900
H1437       H  0.63345841  0.23514573  0.71304978     0.12300
H1438       H  0.63500608  0.24875866  0.63839168     0.12600
H1439       H  0.64295938  0.22926376  0.79363995     0.15300
H1440       H  0.67644837  0.23114780  0.79500035     0.14100
H1441       H  0.66720045  0.27378210  0.60473480     0.11800
H1442       H  0.64360788  0.25318954  0.56448417     0.13800
C1443       C  0.65151938  0.25087577  0.22441941     0.19900
C1444       C  0.65026214  0.25789929  0.18024652    -0.18200
C1445       C  0.64970912  0.24971708  0.13822883    -0.10500
C1446       C  0.65038032  0.23422707  0.13954608     0.22100
C1447       C  0.65103544  0.22722453  0.18391570    -0.19800
C1448       C  0.65157641  0.23540110  0.22585465    -0.10700
C1449       C  0.65085810  0.22486726  0.09613888    -0.14800
C1450       C  0.65297943  0.23000593  0.05183755    -0.28700
C1451       C  0.65257272  0.26005380  0.26799647    -0.03000
C1452       C  0.65821288  0.25521255  0.30926128    -0.39500
H1453       H  0.64993196  0.26980227  0.17815820     0.13300
H1454       H  0.64880449  0.25566126  0.10519000     0.12900
H1455       H  0.65134372  0.21532472  0.18618887     0.12300
H1456       H  0.65194942  0.22950441  0.25914332     0.12600
H1457       H  0.65040954  0.21301473  0.10133692     0.15300
H1458       H  0.65389405  0.24169592  0.04491998     0.14100
H1459       H  0.64916202  0.27147459  0.26535470     0.11800
H1460       H  0.66236978  0.24409739  0.31243326     0.13800
C1461       C  0.90192195  0.35728340  0.63390756     0.19900
C1462       C  0.88677460  0.35927220  0.63805762    -0.18200
C1463       C  0.87706738  0.34777086  0.62760027    -0.10500
C1464       C  0.88236121  0.33405189  0.61206114     0.22100
C1465       C  0.89749919  0.33218359  0.60721112    -0.19800
C1466       C  0.90716967  0.34364948  0.61764229    -0.10700
C1467       C  0.87270310  0.32121903  0.60196991    -0.14800
C1468       C  0.85816405  0.32199748  0.59526425    -0.28700
C1469       C  0.91193125  0.36966262  0.64603268    -0.03000
C1470       C  0.92582329  0.36756460  0.65996747    -0.39500
H1471       H  0.88244658  0.36968530  0.65027494     0.13300
H1472       H  0.86552427  0.34965207  0.63271863     0.12900
H1473       H  0.90189127  0.32178474  0.59508677     0.12300
H1474       H  0.91871718  0.34179796  0.61228103     0.12600
H1475       H  0.87793687  0.31052848  0.59924123     0.15300
H1476       H  0.85253858  0.33246853  0.59620112     0.14100
H1477       H  0.90760968  0.38078266  0.64487997     0.11800
H1478       H  0.93009479  0.35650764  0.66379086     0.13800
C1479       C  0.73301895  0.29697850  0.48821299     0.19900
C1480       C  0.73823105  0.29849054  0.53481536    -0.18200
C1481       C  0.75322341  0.29831317  0.54437021    -0.10500
C1482       C  0.76337759  0.29664485  0.50729612     0.22100
C1483       C  0.75820293  0.29567460  0.46053340    -0.19800
C1484       C  0.74320940  0.29581085  0.45097536    -0.10700
C1485       C  0.77939396  0.29588050  0.51573225    -0.14800
C1486       C  0.78534019  0.29132322  0.55684612    -0.28700
C1487       C  0.71693393  0.29664414  0.48032066    -0.03000
C1488       C  0.71055522  0.29104405  0.44122837    -0.39500
H1489       H  0.73065325  0.29963199  0.56411230     0.13300
H1490       H  0.75676791  0.29959717  0.58073013     0.12900
H1491       H  0.76579829  0.29460202  0.43125357     0.12300
H1492       H  0.73974279  0.29511221  0.41439807     0.12600
H1493       H  0.78655041  0.29809320  0.48575103     0.15300
H1494       H  0.77844647  0.28816702  0.58648746     0.14100
H1495       H  0.71000590  0.30024346  0.50939571     0.11800
H1496       H  0.71709207  0.28661508  0.41255954     0.13800
C1497       C  0.88512056  0.14714347  0.10104771     0.19900
C1498       C  0.89859508  0.14921099  0.12369142    -0.18200
C1499       C  0.90723936  0.13715149  0.13625106    -0.10500
C1500       C  0.90269582  0.12266306  0.12554715     0.22100
C1501       C  0.88934622  0.12068116  0.10181042    -0.19800
C1502       C  0.88067718  0.13274216  0.08953275    -0.10700
C1503       C  0.91131115  0.10933019  0.13877312    -0.14800
C1504       C  0.92501878  0.10978136  0.15597978    -0.28700
C1505       C  0.87589796  0.16017097  0.09037545    -0.03000
C1506       C  0.86123230  0.15941101  0.08953134    -0.39500
H1507       H  0.90228633  0.16019530  0.13279592     0.13300
H1508       H  0.91727953  0.13939379  0.15497981     0.12900
H1509       H  0.88557922  0.10972475  0.09270312     0.12300
H1510       H  0.87056435  0.13073422  0.07072605     0.12600
H1511       H  0.90621595  0.09863478  0.13337736     0.15300
H1512       H  0.93065362  0.12016461  0.16069710     0.14100
H1513       H  0.88123590  0.17080355  0.08628129     0.11800
H1514       H  0.85574469  0.14904540  0.09681131     0.13800
C1515       C  0.73318617  0.18772709  0.98190726     0.19900
C1516       C  0.74537163  0.18567815  0.95244156    -0.18200
C1517       C  0.75951116  0.18597432  0.97124874    -0.10500
C1518       C  0.76171753  0.18854002  0.01994617     0.22100
C1519       C  0.74954524  0.19042703  0.04946450    -0.19800
C1520       C  0.73541876  0.18994748  0.03080256    -0.10700
C1521       C  0.77650950  0.19084319  0.04002482    -0.14800
C1522       C  0.78854294  0.18440024  0.02251707    -0.28700
C1523       C  0.71848405  0.18910052  0.96012253    -0.03000
C1524       C  0.70603561  0.18659624  0.98418985    -0.39500
H1525       H  0.74395651  0.18419864  0.91458724     0.13300
H1526       H  0.76867837  0.18490079  0.94724757     0.12900
H1527       H  0.75099139  0.19263984  0.08693601     0.12300
H1528       H  0.72636208  0.19206119  0.05447154     0.12600
H1529       H  0.77751873  0.19822913  0.07018417     0.15300
H1530       H  0.78766516  0.17627385  0.99443548     0.14100
H1531       H  0.71790593  0.19283351  0.92352577     0.11800
H1532       H  0.70637432  0.18215900  0.01991969     0.13800
C1533       C  0.84039349  0.24773570  0.77688789     0.19900
C1534       C  0.84278140  0.25438751  0.82112960    -0.18200
C1535       C  0.84343845  0.24596473  0.86256802    -0.10500
C1536       C  0.84150511  0.23059479  0.86080556     0.22100
C1537       C  0.83943307  0.22389940  0.81636432    -0.19800
C1538       C  0.83883456  0.23233422  0.77484965    -0.10700
C1539       C  0.84123151  0.22113969  0.90404489    -0.14800
C1540       C  0.84026194  0.22626877  0.94880492    -0.28700
C1541       C  0.83874662  0.25738654  0.73458122    -0.03000
C1542       C  0.83988400  0.25277157  0.68936291    -0.39500
H1543       H  0.84405584  0.26622086  0.82372546     0.13300
H1544       H  0.84542318  0.25165125  0.89556802     0.12900
H1545       H  0.83792509  0.21209164  0.81381942     0.12300
H1546       H  0.83668532  0.22675668  0.74171010     0.12600
H1547       H  0.84103716  0.20929587  0.89855477     0.15300
H1548       H  0.83990772  0.23796301  0.95604983     0.14100
H1549       H  0.83654992  0.26896051  0.74114850     0.11800
H1550       H  0.84269607  0.24146272  0.68130664     0.13800
C1551       C  0.83975715  0.23080663  0.27814841     0.19900
C1552       C  0.84733682  0.24384838  0.28879596    -0.18200
C1553       C  0.84607401  0.25041181  0.33355798    -0.10500
C1554       C  0.83729960  0.24391791  0.36899784     0.22100
C1555       C  0.83006567  0.23065803  0.35867113    -0.19800
C1556       C  0.83133769  0.22411016  0.31402928    -0.10700
C1557       C  0.83477975  0.25079011  0.41627978    -0.14800
C1558       C  0.84280348  0.26189274  0.43439916    -0.28700
C1559       C  0.84086930  0.22452310  0.22946274    -0.03000
C1560       C  0.83066744  0.21550697  0.21091708    -0.39500
H1561       H  0.85398280  0.24918440  0.26197500     0.13300
H1562       H  0.85168946  0.26072489  0.33946779     0.12900
H1563       H  0.82332659  0.22533693  0.38528444     0.12300
H1564       H  0.82575836  0.21376774  0.30810530     0.12600
H1565       H  0.82579991  0.24642817  0.43734732     0.15300
H1566       H  0.85215082  0.26626240  0.41538934     0.14100
H1567       H  0.85005974  0.22789736  0.20752055     0.11800
H1568       H  0.82105413  0.21254009  0.23132327     0.13800
loop_ 
_geom_bond_atom_site_label_1 
_geom_bond_atom_site_label_2 
_geom_bond_distance 
_geom_bond_site_symmetry_2 
_ccdc_geom_bond_type 
O1            C4   1.264   1_554  A
O1           Cd6   2.479       .  S
C2           O11   1.263       .  A
C2            O7   1.267       .  A
C2         C1560   1.475       .  S
O3            C9   1.264       .  A
O3           Cd6   2.467       .  S
C4           O12   1.264       .  A
C4         C1540   1.476       .  S
C5           O10   1.262       .  A
C5            O8   1.266       .  A
C5         C1506   1.473       .  S
Cd6          O13   2.461       .  S
Cd6          O12   2.464   1_554  S
Cd6          O11   2.449       .  S
Cd6           O7   2.492       .  S
Cd6          O10   2.445       .  S
Cd6           O8   2.494       .  S
C9           O13   1.266       .  A
C9         C1522   1.473       .  S
O14          C17   1.264       .  A
O14         Cd19   2.483       .  S
C15          O24   1.264       .  A
C15          O20   1.265       .  A
C15        C1558   1.477       .  S
O16          C22   1.264       .  A
O16         Cd19   2.471       .  S
C17          O25   1.265       .  A
C17        C1542   1.477       .  S
C18          O23   1.264       .  A
C18          O21   1.265       .  A
C18        C1468   1.477       .  S
Cd19         O26   2.470       .  S
Cd19         O25   2.467       .  S
Cd19         O24   2.478       .  S
Cd19         O20   2.468       .  S
Cd19         O23   2.483       .  S
Cd19         O21   2.462       .  S
C22          O26   1.265       .  A
C22        C1486   1.475       .  S
O27          C30   1.267       .  A
O27         Cd32   2.480       .  S
C28          O37   1.265       .  A
C28          O33   1.262   1_554  A
C28        C1450   1.476       .  S
O29          C35   1.263       .  A
O29         Cd32   2.478       .  S
C30          O38   1.265       .  A
C30        C1432   1.474       .  S
C31          O36   1.263       .  A
C31          O34   1.265       .  A
C31        C1524   1.473       .  S
Cd32         O39   2.471       .  S
Cd32         O38   2.450       .  S
Cd32         O37   2.478   1_556  S
Cd32         O33   2.474       .  S
Cd32         O36   2.462       .  S
Cd32         O34   2.474       .  S
C35          O39   1.265       .  A
C35        C1414   1.477       .  S
O40          C43   1.265       .  A
O40         Cd45   2.469       .  S
C41          O50   1.263       .  A
C41          O46   1.265       .  A
C41        C1434   1.477       .  S
O42          C48   1.263       .  A
O42         Cd45   2.470       .  S
C43          O51   1.266       .  A
C43        C1452   1.475       .  S
C44          O49   1.263       .  A
C44          O47   1.265       .  A
C44        C1396   1.475       .  S
Cd45         O52   2.475       .  S
Cd45         O51   2.465       .  S
Cd45         O50   2.451       .  S
Cd45         O46   2.494       .  S
Cd45         O49   2.465       .  S
Cd45         O47   2.478       .  S
C48          O52   1.265       .  A
C48        C1488   1.476       .  S
O53          C56   1.265       .  A
O53         Cd58   2.457       .  S
C54          O63   1.266       .  A
C54          O59   1.265       .  A
C54        C1360   1.479       .  S
O55          C61   1.265       .  A
O55         Cd58   2.482       .  S
C56          O64   1.265       .  A
C56        C1380   1.478       .  S
C57          O62   1.264       .  A
C57          O60   1.264       .  A
C57        C1324   1.476       .  S
Cd58         O65   2.480       .  S
Cd58         O64   2.483       .  S
Cd58         O63   2.476       .  S
Cd58         O59   2.477       .  S
Cd58         O62   2.484       .  S
Cd58         O60   2.466       .  S
C61          O65   1.264       .  A
C61        C1344   1.479       .  S
O66          C69   1.266       .  A
O66         Cd71   2.491       .  S
C67          O76   1.265       .  A
C67          O72   1.264       .  A
C67        C1362   1.479       .  S
O68          C74   1.265       .  A
O68         Cd71   2.479       .  S
C69          O77   1.264       .  A
C69        C1378   1.476   1_556  S
C70          O75   1.265       .  A
C70          O73   1.264       .  A
C70        C1290   1.477       .  S
Cd71         O78   2.448       .  S
Cd71         O77   2.465       .  S
Cd71         O76   2.480       .  S
Cd71         O72   2.478       .  S
Cd71         O75   2.483       .  S
Cd71         O73   2.472       .  S
C74          O78   1.266       .  A
C74        C1306   1.476       .  S
O79          C82   1.267       .  A
O79         Cd84   2.486       .  S
C80          O89   1.266       .  A
C80          O85   1.266       .  A
C80        C1252   1.473       .  S
O81          C87   1.264       .  A
O81         Cd84   2.496       .  S
C82          O90   1.264       .  A
C82        C1270   1.474       .  S
C83          O88   1.268       .  A
C83          O86   1.262       .  A
C83        C1504   1.476       .  S
Cd84         O91   2.472       .  S
Cd84         O90   2.449       .  S
Cd84         O89   2.455       .  S
Cd84         O85   2.465       .  S
Cd84         O88   2.505       .  S
Cd84         O86   2.444       .  S
C87          O91   1.262       .  A
C87        C1342   1.478       .  S
O92          C95   1.267       .  A
O92         Cd97   2.467       .  S
C93         O102   1.266       .  A
C93          O98   1.266       .  A
C93        C1254   1.475       .  S
O94         C100   1.268       .  A
O94         Cd97   2.494       .  S
C95         O103   1.264       .  A
C95        C1272   1.474       .  S
C96         O101   1.268       .  A
C96          O99   1.263       .  A
C96        C1236   1.472       .  S
Cd97        O104   2.434       .  S
Cd97        O103   2.454       .  S
Cd97        O102   2.443       .  S
Cd97         O98   2.474       .  S
Cd97        O101   2.492       .  S
Cd97         O99   2.434       .  S
C100        O104   1.262       .  A
C100       C1308   1.472       .  S
O105        C108   1.266       .  A
O105       Cd110   2.473       .  S
C106        O115   1.266       .  A
C106        O111   1.266       .  A
C106       C1198   1.478       .  S
O107        C113   1.268       .  A
O107       Cd110   2.490       .  S
C108        O116   1.263       .  A
C108       C1216   1.476       .  S
C109        O114   1.265       .  A
C109        O112   1.262       .  A
C109       C1182   1.476       .  S
Cd110       O117   2.445       .  S
Cd110       O116   2.471       .  S
Cd110       O115   2.469       .  S
Cd110       O111   2.472       .  S
Cd110       O114   2.491       .  S
Cd110       O112   2.466       .  S
C113        O117   1.263       .  A
C113       C1470   1.474       .  S
O118        C121   1.265       .  A
O118       Cd123   2.477       .  S
C119        O128   1.267       .  A
C119        O124   1.264       .  A
C119       C1218   1.476       .  S
O120        C126   1.270       .  A
O120       Cd123   2.509       .  S
C121        O129   1.266       .  A
C121       C1200   1.479       .  S
C122        O127   1.266       .  A
C122        O125   1.264       .  A
C122       C1144   1.482       .  S
Cd123       O130   2.432       .  S
Cd123       O129   2.478       .  S
Cd123       O128   2.483       .  S
Cd123       O124   2.459       .  S
Cd123       O127   2.502       .  S
Cd123       O125   2.468       .  S
C126        O130   1.263       .  A
C126       C1164   1.476       .  S
O131        C134   1.267       .  A
O131       Cd136   2.474       .  S
C132        O141   1.265       .  A
C132        O137   1.264       .  A
C132       C1108   1.478       .  S
O133        C139   1.265       .  A
O133       Cd136   2.480       .  S
C134        O142   1.264       .  A
C134       C1128   1.477       .  S
C135        O140   1.264       .  A
C135        O138   1.264       .  A
C135       C1180   1.477       .  S
Cd136       O143   2.456       .  S
Cd136       O142   2.466       .  S
Cd136       O141   2.479       .  S
Cd136       O137   2.478       .  S
Cd136       O140   2.483       .  S
Cd136       O138   2.475       .  S
C139        O143   1.264       .  A
C139       C1090   1.476       .  S
O144        C147   1.266       .  A
O144       Cd149   2.476       .  S
C145        O154   1.263       .  A
C145        O150   1.266       .  A
C145       C1126   1.475       .  S
O146        C152   1.266       .  A
O146       Cd149   2.493       .  S
C147        O155   1.266       .  A
C147       C1110   1.478       .  S
C148        O153   1.265       .  A
C148        O151   1.264       .  A
C148       C1072   1.478       .  S
Cd149       O156   2.452       .  S
Cd149       O155   2.462       .  S
Cd149       O154   2.453       .  S
Cd149       O150   2.498       .  S
Cd149       O153   2.479       .  S
Cd149       O151   2.477       .  S
C152        O156   1.265       .  A
C152       C1162   1.481       .  S
O157        C160   1.266       .  A
O157       Cd162   2.475       .  S
C158        O167   1.266       .  A
C158        O163   1.266       .  A
C158       C1036   1.475       .  S
O159        C165   1.266       .  A
O159       Cd162   2.491       .  S
C160        O168   1.264       .  A
C160       C1054   1.475       .  S
C161        O166   1.268       .  A
C161        O164   1.263       .  A
C161       C1018   1.472       .  S
Cd162       O169   2.447       .  S
Cd162       O168   2.462       .  S
Cd162       O167   2.456       .  S
Cd162       O163   2.468       .  S
Cd162       O166   2.497       .  S
Cd162       O164   2.437       .  S
C165        O169   1.262       .  A
C165       C1326   1.473       .  S
O170        C173   1.264       .  A
O170       Cd175   2.472       .  S
C171        O180   1.265       .  A
C171        O176   1.266       .  A
C171       C1056   1.477       .  S
O172        C178   1.264   1_554  A
O172       Cd175   2.440   1_554  S
C173        O181   1.265       .  A
C173       C1038   1.476       .  S
C174        O179   1.267       .  A
C174        O177   1.264       .  A
C174       C1092   1.476       .  S
Cd175       O182   2.506       .  S
Cd175       O181   2.475       .  S
Cd175       O180   2.473   1_556  S
Cd175       O176   2.463   1_556  S
Cd175       O179   2.475       .  S
Cd175       O177   2.466       .  S
C178        O182   1.266       .  A
C178       C1000   1.480   1_556  S
O183        C186   1.266       .  A
O183       Cd188   2.466       .  S
C184        O193   1.266       .  A
C184        O189   1.264       .  A
C184        C966   1.475       .  S
O185        C191   1.266       .  A
O185       Cd188   2.479       .  S
C186        O194   1.264       .  A
C186        C982   1.474       .  S
C187        O192   1.266       .  A
C187        O190   1.265       .  A
C187       C1020   1.478       .  S
Cd188       O195   2.457       .  S
Cd188       O194   2.461       .  S
Cd188       O193   2.471       .  S
Cd188       O189   2.465       .  S
Cd188       O192   2.492       .  S
Cd188       O190   2.437       .  S
C191        O195   1.263       .  A
C191        C948   1.475       .  S
O196        C199   1.265       .  A
O196       Cd201   2.467       .  S
C197        O206   1.264       .  A
C197        O202   1.266   1_556  A
C197        C984   1.475       .  S
O198        C204   1.263       .  A
O198       Cd201   2.433       .  S
C199        O207   1.266       .  A
C199        C964   1.475       .  S
C200        O205   1.267       .  A
C200        O203   1.262       .  A
C200        C928   1.474       .  S
Cd201       O208   2.511       .  S
Cd201       O207   2.460       .  S
Cd201       O206   2.464   1_554  S
Cd201       O202   2.471       .  S
Cd201       O205   2.487       .  S
Cd201       O203   2.449       .  S
C204        O208   1.268       .  A
C204       C1002   1.474       .  S
O209        C212   1.263       .  A
O209       Cd214   2.471       .  S
C210        O219   1.265       .  A
C210        O215   1.266   1_556  A
C210        C894   1.474       .  S
O211        C217   1.262       .  A
O211       Cd214   2.450       .  S
C212        O220   1.265       .  A
C212        C910   1.476       .  S
C213        O218   1.267       .  A
C213        O216   1.264       .  A
C213        C858   1.473       .  S
Cd214       O221   2.502       .  S
Cd214       O220   2.484       .  S
Cd214       O219   2.467   1_554  S
Cd214       O215   2.461       .  S
Cd214       O218   2.474       .  S
Cd214       O216   2.451       .  S
C217        O221   1.264       .  A
C217        C874   1.477       .  S
O222        C225   1.266       .  A
O222       Cd227   2.458       .  S
C223        O232   1.263       .  A
C223        O228   1.267       .  A
C223        C892   1.473       .  S
O224        C230   1.266       .  A
O224       Cd227   2.483       .  S
C225        O233   1.267       .  A
C225        C912   1.478       .  S
C226        O231   1.265       .  A
C226        O229   1.263       .  A
C226        C820   1.477       .  S
Cd227       O234   2.448       .  S
Cd227       O233   2.477       .  S
Cd227       O232   2.444       .  S
Cd227       O228   2.481       .  S
Cd227       O231   2.496       .  S
Cd227       O229   2.464       .  S
C230        O234   1.265       .  A
C230        C840   1.477       .  S
O235        C238   1.266       .  A
O235       Cd240   2.472       .  S
C236        O245   1.263       .  A
C236        O241   1.265       .  A
C236        C784   1.477       .  S
O237        C243   1.262       .  A
O237       Cd240   2.459       .  S
C238        O246   1.265       .  A
C238        C802   1.477       .  S
C239        O244   1.266       .  A
C239        O242   1.265       .  A
C239       C1288   1.479       .  S
Cd240       O247   2.505       .  S
Cd240       O246   2.470       .  S
Cd240       O245   2.478   1_556  S
Cd240       O241   2.476   1_556  S
Cd240       O244   2.483       .  S
Cd240       O242   2.465       .  S
C243        O247   1.266       .  A
C243        C876   1.476       .  S
O248        C251   1.265       .  A
O248       Cd253   2.470       .  S
C249        O258   1.264       .  A
C249        O254   1.267       .  A
C249        C786   1.476       .  S
O250        C256   1.269       .  A
O250       Cd253   2.498       .  S
C251        O259   1.265       .  A
C251        C804   1.477       .  S
C252        O257   1.266       .  A
C252        O255   1.264       .  A
C252       C1074   1.478       .  S
Cd253       O260   2.434       .  S
Cd253       O259   2.474       .  S
Cd253       O258   2.463       .  S
Cd253       O254   2.475       .  S
Cd253       O257   2.484       .  S
Cd253       O255   2.462       .  S
C256        O260   1.263       .  A
C256        C838   1.473       .  S
O261        C264   1.265       .  A
O261       Cd266   2.465       .  S
C262        O271   1.266       .  A
C262        O267   1.263       .  A
C262        C766   1.476       .  S
O263        C269   1.263       .  A
O263       Cd266   2.471       .  S
C264        O272   1.266       .  A
C264        C748   1.476       .  S
C265        O270   1.264       .  A
C265        O268   1.268       .  A
C265        C730   1.474       .  S
Cd266       O273   2.485       .  S
Cd266       O272   2.478       .  S
Cd266       O271   2.489       .  S
Cd266       O267   2.459       .  S
Cd266       O270   2.450       .  S
Cd266       O268   2.481       .  S
C269        O273   1.266       .  A
C269        C714   1.477       .  S
O274        C277   1.265       .  A
O274       Cd279   2.487       .  S
C275        O284   1.263       .  A
C275        O280   1.266       .  A
C275        C750   1.475       .  S
O276        C282   1.264       .  A
O276       Cd279   2.477       .  S
C277        O285   1.265   1_556  A
C277        C768   1.479   1_556  S
C278        O283   1.263       .  A
C278        O281   1.265       .  A
C278        C678   1.479       .  S
Cd279       O286   2.452       .  S
Cd279       O285   2.463   1_556  S
Cd279       O284   2.462       .  S
Cd279       O280   2.478       .  S
Cd279       O283   2.473       .  S
Cd279       O281   2.497       .  S
C282        O286   1.265       .  A
C282        C696   1.475       .  S
O287        C290   1.264       .  A
O287       Cd292   2.482       .  S
C288        O297   1.263       .  A
C288        O293   1.266       .  A
C288        C640   1.477       .  S
O289        C295   1.264       .  A
O289       Cd292   2.460       .  S
C290        O298   1.265       .  A
C290        C660   1.479       .  S
C291        O296   1.265       .  A
C291        O294   1.264       .  A
C291       C1234   1.477       .  S
Cd292       O299   2.471       .  S
Cd292       O298   2.483       .  S
Cd292       O297   2.465       .  S
Cd292       O293   2.482       .  S
Cd292       O296   2.488       .  S
Cd292       O294   2.448       .  S
C295        O299   1.267       .  A
C295        C732   1.474       .  S
O300        C303   1.270       .  A
O300       Cd305   2.513       .  S
C301        O310   1.262       .  A
C301        O306   1.270   1_556  A
C301        C658   1.479       .  S
O302        C308   1.266       .  A
O302       Cd305   2.480       .  S
C303        O311   1.263       .  A
C303        C642   1.478       .  S
C304        O309   1.267       .  A
C304        O307   1.264       .  A
C304        C694   1.472       .  S
Cd305       O312   2.474       .  S
Cd305       O311   2.438       .  S
Cd305       O310   2.434   1_554  S
Cd305       O306   2.530       .  S
Cd305       O309   2.476       .  S
Cd305       O307   2.447       .  S
C308        O312   1.266       .  A
C308       C1146   1.480       .  S
O313        C316   1.264       .  A
O313       Cd318   2.464       .  S
C314        O323   1.265       .  A
C314        O319   1.265       .  A
C314        C606   1.476       .  S
O315        C321   1.264       .  A
O315       Cd318   2.487       .  S
C316        O324   1.267       .  A
C316        C622   1.478       .  S
C317        O322   1.264       .  A
C317        O320   1.264       .  A
C317        C930   1.479       .  S
Cd318       O325   2.475       .  S
Cd318       O324   2.493       .  S
Cd318       O323   2.467       .  S
Cd318       O319   2.472       .  S
Cd318       O322   2.494       .  S
Cd318       O320   2.473       .  S
C321        O325   1.264       .  A
C321        C588   1.477       .  S
O326        C329   1.264       .  A
O326       Cd331   2.484       .  S
C327        O336   1.265       .  A
C327        O332   1.263       .  A
C327        C604   1.478       .  S
O328        C334   1.267       .  A
O328       Cd331   2.480       .  S
C329        O337   1.265       .  A
C329        C624   1.479       .  S
C330        O335   1.263       .  A
C330        O333   1.264       .  A
C330        C822   1.478       .  S
Cd331       O338   2.458       .  S
Cd331       O337   2.475       .  S
Cd331       O336   2.486       .  S
Cd331       O332   2.475       .  S
Cd331       O335   2.485       .  S
Cd331       O333   2.479       .  S
C334        O338   1.265       .  A
C334        C568   1.475       .  S
O339        C342   1.268       .  A
O339       Cd344   2.503       .  S
C340        O349   1.262       .  A
C340        O345   1.268       .  A
C340        C550   1.477       .  S
O341        C347   1.268       .  A
O341       Cd344   2.487       .  S
C342        O350   1.264       .  A
C342        C534   1.481       .  S
C343        O348   1.268       .  A
C343        O346   1.266       .  A
C343        C586   1.479       .  S
Cd344       O351   2.452       .  S
Cd344       O350   2.464       .  S
Cd344       O349   2.449       .  S
Cd344       O345   2.510       .  S
Cd344       O348   2.487       .  S
Cd344       O346   2.443       .  S
C347        O351   1.264       .  A
C347       C1398   1.475       .  S
O352        C355   1.267       .  A
O352       Cd357   2.490       .  S
C353        O362   1.263       .  A
C353        O358   1.268       .  A
C353        C532   1.479       .  S
O354        C360   1.268       .  A
O354       Cd357   2.494       .  S
C355        O363   1.264       .  A
C355        C552   1.479       .  S
C356        O361   1.269       .  A
C356        O359   1.264       .  A
C356        C676   1.479       .  S
Cd357       O364   2.437       .  S
Cd357       O363   2.468       .  S
Cd357       O362   2.459       .  S
Cd357       O358   2.502       .  S
Cd357       O361   2.501       .  S
Cd357       O359   2.449       .  S
C360        O364   1.264       .  A
C360        C570   1.478       .  S
O365        C368   1.264       .  A
O365       Cd370   2.491       .  S
C366        O375   1.265       .  A
C366        O371   1.268       .  A
C366        C496   1.479       .  S
O367        C373   1.265       .  A
O367       Cd370   2.487       .  S
C368        O376   1.264       .  A
C368        C514   1.482       .  S
C369        O374   1.263       .  A
C369        O372   1.264       .  A
C369        C946   1.477       .  S
Cd370       O377   2.456       .  S
Cd370       O376   2.489       .  S
Cd370       O375   2.465       .  S
Cd370       O371   2.492       .  S
Cd370       O374   2.482       .  S
Cd370       O372   2.479       .  S
C373        O377   1.265       .  A
C373        C478   1.477       .  S
O378        C381   1.264       .  A
O378       Cd383   2.479       .  S
C379        O388   1.265       .  A
C379        O384   1.265       .  A
C379        C498   1.480       .  S
O380        C386   1.264       .  A
O380       Cd383   2.483       .  S
C381        O389   1.265       .  A
C381        C516   1.479       .  S
C382        O387   1.264       .  A
C382        O385   1.266       .  A
C382        C856   1.477       .  S
Cd383       O390   2.475       .  S
Cd383       O389   2.480       .  S
Cd383       O388   2.492       .  S
Cd383       O384   2.466       .  S
Cd383       O387   2.479       .  S
Cd383       O385   2.466       .  S
C386        O390   1.266       .  A
C386        C462   1.480       .  S
O391        C394   1.270       .  A
O391       Cd396   2.490       .  S
C392        O401   1.264       .  A
C392        O397   1.270       .  A
C392        C426   1.474       .  S
O393        C399   1.271       .  A
O393       Cd396   2.511       .  S
C394        O402   1.265       .  A
C394        C444   1.477       .  S
C395        O400   1.271       .  A
C395        O398   1.264       .  A
C395        C712   1.475       .  S
Cd396       O403   2.430       .  S
Cd396       O402   2.446       .  S
Cd396       O401   2.433       .  S
Cd396       O397   2.491       .  S
Cd396       O400   2.508       .  S
Cd396       O398   2.424       .  S
C399        O403   1.263       .  A
C399        C460   1.477       .  S
O404        C407   1.271       .  A
O404       Cd409   2.489       .  S
C405        O414   1.263       .  A
C405        O410   1.272       .  A
C405        C424   1.473       .  S
O406        C412   1.271       .  A
O406       Cd409   2.486       .  S
C407        O415   1.265       .  A
C407        C442   1.478       .  S
C408        O413   1.270       .  A
C408        O411   1.265       .  A
C408       C1416   1.475       .  S
Cd409       O416   2.415       .  S
Cd409       O415   2.443       .  S
Cd409       O414   2.417       .  S
Cd409       O410   2.493       .  S
Cd409       O413   2.489       .  S
Cd409       O411   2.436       .  S
C412        O416   1.263       .  A
C412        C480   1.471       .  S
C417        C425   1.493       .  S
C417        C418   1.404       .  A
C417        C422   1.411       .  A
C418        C419   1.398       .  A
C418        H427   1.083       .  S
C419        C420   1.409   1_554  A
C419        H428   1.081       .  S
C420        C423   1.488       .  S
C420        C421   1.401       .  A
C421        C422   1.399   1_556  A
C421        H429   1.083       .  S
C422        H430   1.079       .  S
C423        H431   1.087       .  S
C423        C424   1.343       .  D
C424        H432   1.085       .  S
C425        H433   1.087       .  S
C425        C426   1.345       .  D
C426        H434   1.082       .  S
C435        C443   1.492       .  S
C435        C436   1.404       .  A
C435        C440   1.409       .  A
C436        C437   1.401       .  A
C436        H445   1.083       .  S
C437        C438   1.409       .  A
C437        H446   1.081       .  S
C438        C441   1.492       .  S
C438        C439   1.404       .  A
C439        C440   1.399       .  A
C439        H447   1.083       .  S
C440        H448   1.081       .  S
C441        H449   1.087       .  S
C441        C442   1.346       .  D
C442        H450   1.084       .  S
C443        H451   1.087       .  S
C443        C444   1.346       .  D
C444        H452   1.084       .  S
C453        C461   1.492       .  S
C453        C454   1.404       .  A
C453        C458   1.410       .  A
C454        C455   1.397   1_565  A
C454        H463   1.084       .  S
C455        C456   1.407       .  A
C455        H464   1.082       .  S
C456        C459   1.492       .  S
C456        C457   1.404       .  A
C457        C458   1.403   1_545  A
C457        H465   1.083       .  S
C458        H466   1.080       .  S
C459        H467   1.087       .  S
C459        C460   1.346       .  D
C460        H468   1.085       .  S
C461        H469   1.087       .  S
C461        C462   1.347       .  D
C462        H470   1.084       .  S
C471        C479   1.486       .  S
C471        C472   1.403       .  A
C471        C476   1.407       .  A
C472        C473   1.401   1_545  A
C472        H481   1.083       .  S
C473        C474   1.409       .  A
C473        H482   1.080       .  S
C474        C477   1.487       .  S
C474        C475   1.403       .  A
C475        C476   1.395   1_565  A
C475        H483   1.084       .  S
C476        H484   1.082       .  S
C477        H485   1.087       .  S
C477        C478   1.346       .  D
C478        H486   1.084       .  S
C479        H487   1.087       .  S
C479        C480   1.343       .  D
C480        H488   1.085       .  S
C489        C497   1.490       .  S
C489        C490   1.403       .  A
C489        C494   1.407       .  A
C490        C491   1.398       .  A
C490        H499   1.083       .  S
C491        C492   1.409       .  A
C491        H500   1.080       .  S
C492        C495   1.495       .  S
C492        C493   1.406       .  A
C493        C494   1.402       .  A
C493        H501   1.083       .  S
C494        H502   1.081       .  S
C495        H503   1.087       .  S
C495        C496   1.348       .  D
C496        H504   1.083       .  S
C497        H505   1.087       .  S
C497        C498   1.348       .  D
C498        H506   1.084       .  S
C507        C515   1.492       .  S
C507        C508   1.404       .  A
C507        C512   1.408       .  A
C508        C509   1.400       .  A
C508        H517   1.084       .  S
C509        C510   1.409       .  A
C509        H518   1.080       .  S
C510        C513   1.494       .  S
C510        C511   1.405       .  A
C511        C512   1.401       .  A
C511        H519   1.083       .  S
C512        H520   1.081       .  S
C513        H521   1.087       .  S
C513        C514   1.349       .  D
C514        H522   1.084       .  S
C515        H523   1.087       .  S
C515        C516   1.348   1_556  D
C516        H524   1.084       .  S
C525        C533   1.496       .  S
C525        C526   1.404       .  A
C525        C530   1.410       .  A
C526        C527   1.400       .  A
C526        H535   1.083       .  S
C527        C528   1.409       .  A
C527        H536   1.080       .  S
C528        C531   1.495   1_554  S
C528        C529   1.405       .  A
C529        C530   1.402       .  A
C529        H537   1.083       .  S
C530        H538   1.080       .  S
C531        H539   1.087       .  S
C531        C532   1.347       .  D
C532        H540   1.083       .  S
C533        H541   1.087       .  S
C533        C534   1.348       .  D
C534        H542   1.083       .  S
C543        C551   1.493       .  S
C543        C544   1.403       .  A
C543        C548   1.409       .  A
C544        C545   1.399       .  A
C544        H553   1.083       .  S
C545        C546   1.410       .  A
C545        H554   1.080       .  S
C546        C549   1.496       .  S
C546        C547   1.405       .  A
C547        C548   1.402       .  A
C547        H555   1.083       .  S
C548        H556   1.081       .  S
C549        H557   1.087       .  S
C549        C550   1.347       .  D
C550        H558   1.082       .  S
C551        H559   1.087       .  S
C551        C552   1.347       .  D
C552        H560   1.084       .  S
C561        C569   1.484       .  S
C561        C562   1.402       .  A
C561        C566   1.407       .  A
C562        C563   1.396       .  A
C562        H571   1.084       .  S
C563        C564   1.408       .  A
C563        H572   1.081       .  S
C564        C567   1.490       .  S
C564        C565   1.405       .  A
C565        C566   1.402       .  A
C565        H573   1.083       .  S
C566        H574   1.082       .  S
C567        H575   1.087       .  S
C567        C568   1.347       .  D
C568        H576   1.084       .  S
C569        H577   1.088       .  S
C569        C570   1.346       .  D
C570        H578   1.085       .  S
C579        C587   1.489       .  S
C579        C580   1.405       .  A
C579        C584   1.407       .  A
C580        C581   1.403       .  A
C580        H589   1.083       .  S
C581        C582   1.407       .  A
C581        H590   1.082       .  S
C582        C585   1.486       .  S
C582        C583   1.402       .  A
C583        C584   1.396       .  A
C583        H591   1.084       .  S
C584        H592   1.082       .  S
C585        H593   1.087       .  S
C585        C586   1.346       .  D
C586        H594   1.085       .  S
C587        H595   1.087       .  S
C587        C588   1.347       .  D
C588        H596   1.085       .  S
C597        C605   1.489       .  S
C597        C598   1.403       .  A
C597        C602   1.408       .  A
C598        C599   1.399       .  A
C598        H607   1.084       .  S
C599        C600   1.409       .  A
C599        H608   1.080       .  S
C600        C603   1.492       .  S
C600        C601   1.404       .  A
C601        C602   1.399       .  A
C601        H609   1.084       .  S
C602        H610   1.081       .  S
C603        H611   1.087       .  S
C603        C604   1.347       .  D
C604        H612   1.083       .  S
C605        H613   1.087       .  S
C605        C606   1.347       .  D
C606        H614   1.084       .  S
C615        C623   1.491       .  S
C615        C616   1.404       .  A
C615        C620   1.409       .  A
C616        C617   1.399       .  A
C616        H625   1.084       .  S
C617        C618   1.408       .  A
C617        H626   1.081       .  S
C618        C621   1.491   1_556  S
C618        C619   1.404       .  A
C619        C620   1.401       .  A
C619        H627   1.083       .  S
C620        H628   1.081       .  S
C621        H629   1.087       .  S
C621        C622   1.346       .  D
C622        H630   1.085       .  S
C623        H631   1.087       .  S
C623        C624   1.347       .  D
C624        H632   1.084       .  S
C633        C641   1.495       .  S
C633        C634   1.404       .  A
C633        C638   1.410       .  A
C634        C635   1.401       .  A
C634        H643   1.083       .  S
C635        C636   1.410       .  A
C635        H644   1.080       .  S
C636        C639   1.493       .  S
C636        C637   1.403       .  A
C637        C638   1.399       .  A
C637        H645   1.084       .  S
C638        H646   1.080       .  S
C639        H647   1.087       .  S
C639        C640   1.347       .  D
C640        H648   1.083       .  S
C641        H649   1.087       .  S
C641        C642   1.346       .  D
C642        H650   1.083       .  S
C651        C659   1.486       .  S
C651        C652   1.402       .  A
C651        C656   1.408       .  A
C652        C653   1.399       .  A
C652        H661   1.083       .  S
C653        C654   1.408       .  A
C653        H662   1.082       .  S
C654        C657   1.491       .  S
C654        C655   1.404       .  A
C655        C656   1.404       .  A
C655        H663   1.083       .  S
C656        H664   1.083       .  S
C657        H665   1.086       .  S
C657        C658   1.345       .  D
C658        H666   1.086       .  S
C659        H667   1.087       .  S
C659        C660   1.345       .  D
C660        H668   1.086       .  S
C669        C677   1.492       .  S
C669        C670   1.403       .  A
C669        C674   1.409       .  A
C670        C671   1.399       .  A
C670        H679   1.084       .  S
C671        C672   1.410       .  A
C671        H680   1.080       .  S
C672        C675   1.496       .  S
C672        C673   1.405       .  A
C673        C674   1.401       .  A
C673        H681   1.083       .  S
C674        H682   1.081       .  S
C675        H683   1.087       .  S
C675        C676   1.348       .  D
C676        H684   1.083       .  S
C677        H685   1.087       .  S
C677        C678   1.347       .  D
C678        H686   1.084       .  S
C687        C695   1.486   1_554  S
C687        C688   1.403       .  A
C687        C692   1.409   1_554  A
C688        C689   1.395       .  A
C688        H697   1.084       .  S
C689        C690   1.405       .  A
C689        H698   1.082       .  S
C690        C693   1.485       .  S
C690        C691   1.403   1_554  A
C691        C692   1.400       .  A
C691        H699   1.083       .  S
C692        H700   1.081       .  S
C693        H701   1.087       .  S
C693        C694   1.345       .  D
C694        H702   1.085       .  S
C695        H703   1.087   1_556  S
C695        C696   1.346       .  D
C696        H704   1.084       .  S
C705        C713   1.487       .  S
C705        C706   1.402       .  A
C705        C710   1.408       .  A
C706        C707   1.397       .  A
C706        H715   1.084       .  S
C707        C708   1.409       .  A
C707        H716   1.081       .  S
C708        C711   1.491       .  S
C708        C709   1.404       .  A
C709        C710   1.402       .  A
C709        H717   1.083       .  S
C710        H718   1.082       .  S
C711        H719   1.087       .  S
C711        C712   1.345       .  D
C712        H720   1.085       .  S
C713        H721   1.087       .  S
C713        C714   1.345       .  D
C714        H722   1.085       .  S
C723        C731   1.482       .  S
C723        C724   1.401       .  A
C723        C728   1.407       .  A
C724        C725   1.398       .  A
C724        H733   1.083       .  S
C725        C726   1.409       .  A
C725        H734   1.082       .  S
C726        C729   1.487       .  S
C726        C727   1.403       .  A
C727        C728   1.399       .  A
C727        H735   1.083       .  S
C728        H736   1.083       .  S
C729        H737   1.087       .  S
C729        C730   1.344       .  D
C730        H738   1.085       .  S
C731        H739   1.087       .  S
C731        C732   1.343       .  D
C732        H740   1.086       .  S
C741        C749   1.487       .  S
C741        C742   1.403       .  A
C741        C746   1.408       .  A
C742        C743   1.399       .  A
C742        H751   1.083       .  S
C743        C744   1.407       .  A
C743        H752   1.081       .  S
C744        C747   1.487       .  S
C744        C745   1.403       .  A
C745        C746   1.398       .  A
C745        H753   1.083       .  S
C746        H754   1.081       .  S
C747        H755   1.087       .  S
C747        C748   1.347       .  D
C748        H756   1.084       .  S
C749        H757   1.087       .  S
C749        C750   1.345       .  D
C750        H758   1.085       .  S
C759        C767   1.490       .  S
C759        C760   1.404       .  A
C759        C764   1.409       .  A
C760        C761   1.398       .  A
C760        H769   1.084       .  S
C761        C762   1.407       .  A
C761        H770   1.081       .  S
C762        C765   1.490       .  S
C762        C763   1.404       .  A
C763        C764   1.401       .  A
C763        H771   1.084       .  S
C764        H772   1.080       .  S
C765        H773   1.087       .  S
C765        C766   1.346       .  D
C766        H774   1.084       .  S
C767        H775   1.087       .  S
C767        C768   1.347       .  D
C768        H776   1.084       .  S
C777        C785   1.491       .  S
C777        C778   1.404       .  A
C777        C782   1.408       .  A
C778        C779   1.399       .  A
C778        H787   1.083       .  S
C779        C780   1.409       .  A
C779        H788   1.080       .  S
C780        C783   1.491       .  S
C780        C781   1.404       .  A
C781        C782   1.398       .  A
C781        H789   1.083       .  S
C782        H790   1.080       .  S
C783        H791   1.087       .  S
C783        C784   1.347       .  D
C784        H792   1.083       .  S
C785        H793   1.087       .  S
C785        C786   1.347       .  D
C786        H794   1.083       .  S
C795        C803   1.491       .  S
C795        C796   1.404       .  A
C795        C800   1.409       .  A
C796        C797   1.400       .  A
C796        H805   1.084       .  S
C797        C798   1.408       .  A
C797        H806   1.081       .  S
C798        C801   1.490       .  S
C798        C799   1.403       .  A
C799        C800   1.399       .  A
C799        H807   1.084       .  S
C800        H808   1.080       .  S
C801        H809   1.087       .  S
C801        C802   1.346       .  D
C802        H810   1.084       .  S
C803        H811   1.087       .  S
C803        C804   1.347       .  D
C804        H812   1.084       .  S
C813        C821   1.489       .  S
C813        C814   1.403       .  A
C813        C818   1.408       .  A
C814        C815   1.398       .  A
C814        H823   1.084       .  S
C815        C816   1.409       .  A
C815        H824   1.081       .  S
C816        C819   1.492       .  S
C816        C817   1.405       .  A
C817        C818   1.402       .  A
C817        H825   1.083       .  S
C818        H826   1.081       .  S
C819        H827   1.087       .  S
C819        C820   1.347       .  D
C820        H828   1.084       .  S
C821        H829   1.087       .  S
C821        C822   1.346       .  D
C822        H830   1.084       .  S
C831        C839   1.487       .  S
C831        C832   1.402       .  A
C831        C836   1.409       .  A
C832        C833   1.395       .  A
C832        H841   1.084       .  S
C833        C834   1.408       .  A
C833        H842   1.082       .  S
C834        C837   1.489       .  S
C834        C835   1.404       .  A
C835        C836   1.402       .  A
C835        H843   1.083       .  S
C836        H844   1.081       .  S
C837        H845   1.087       .  S
C837        C838   1.345       .  D
C838        H846   1.085       .  S
C839        H847   1.087       .  S
C839        C840   1.347       .  D
C840        H848   1.084       .  S
C849        C857   1.489       .  S
C849        C850   1.405       .  A
C849        C854   1.408       .  A
C850        C851   1.400       .  A
C850        H859   1.083       .  S
C851        C852   1.408       .  A
C851        H860   1.081       .  S
C852        C855   1.486       .  S
C852        C853   1.402       .  A
C853        C854   1.396       .  A
C853        H861   1.084       .  S
C854        H862   1.080       .  S
C855        H863   1.087       .  S
C855        C856   1.345       .  D
C856        H864   1.085       .  S
C857        H865   1.087       .  S
C857        C858   1.346       .  D
C858        H866   1.083       .  S
C867        C875   1.491   1_554  S
C867        C868   1.405       .  A
C867        C872   1.408   1_554  A
C868        C869   1.402       .  A
C868        H877   1.083       .  S
C869        C870   1.407       .  A
C869        H878   1.082       .  S
C870        C873   1.485       .  S
C870        C871   1.403   1_554  A
C871        C872   1.396       .  A
C871        H879   1.084       .  S
C872        H880   1.081       .  S
C873        H881   1.088       .  S
C873        C874   1.346       .  D
C874        H882   1.085       .  S
C875        H883   1.087   1_556  S
C875        C876   1.347       .  D
C876        H884   1.084       .  S
C885        C893   1.484       .  S
C885        C886   1.402       .  A
C885        C890   1.407       .  A
C886        C887   1.397       .  A
C886        H895   1.083       .  S
C887        C888   1.409       .  A
C887        H896   1.080       .  S
C888        C891   1.489       .  S
C888        C889   1.404       .  A
C889        C890   1.399       .  A
C889        H897   1.083       .  S
C890        H898   1.082       .  S
C891        H899   1.087       .  S
C891        C892   1.345       .  D
C892        H900   1.083       .  S
C893        H901   1.087       .  S
C893        C894   1.345       .  D
C894        H902   1.085       .  S
C903        C911   1.492       .  S
C903        C904   1.405       .  A
C903        C908   1.409       .  A
C904        C905   1.398       .  A
C904        H913   1.084       .  S
C905        C906   1.407       .  A
C905        H914   1.081       .  S
C906        C909   1.490       .  S
C906        C907   1.404       .  A
C907        C908   1.400       .  A
C907        H915   1.083       .  S
C908        H916   1.080       .  S
C909        H917   1.087       .  S
C909        C910   1.346       .  D
C910        H918   1.084       .  S
C911        H919   1.087       .  S
C911        C912   1.348       .  D
C912        H920   1.083       .  S
C921        C929   1.491       .  S
C921        C922   1.404       .  A
C921        C926   1.409       .  A
C922        C923   1.397       .  A
C922        H931   1.083       .  S
C923        C924   1.407       .  A
C923        H932   1.081       .  S
C924        C927   1.488       .  S
C924        C925   1.403       .  A
C925        C926   1.401       .  A
C925        H933   1.083       .  S
C926        H934   1.080       .  S
C927        H935   1.087       .  S
C927        C928   1.345       .  D
C928        H936   1.085       .  S
C929        H937   1.087       .  S
C929        C930   1.348       .  D
C930        H938   1.083       .  S
C939        C947   1.489       .  S
C939        C940   1.404       .  A
C939        C944   1.408       .  A
C940        C941   1.399       .  A
C940        H949   1.083       .  S
C941        C942   1.408       .  A
C941        H950   1.081       .  S
C942        C945   1.489       .  S
C942        C943   1.404       .  A
C943        C944   1.398       .  A
C943        H951   1.083       .  S
C944        H952   1.081       .  S
C945        H953   1.087       .  S
C945        C946   1.347       .  D
C946        H954   1.084       .  S
C947        H955   1.087       .  S
C947        C948   1.346       .  D
C948        H956   1.084       .  S
C957        C965   1.489       .  S
C957        C958   1.404       .  A
C957        C962   1.408       .  A
C958        C959   1.399       .  A
C958        H967   1.084       .  S
C959        C960   1.409       .  A
C959        H968   1.080       .  S
C960        C963   1.489       .  S
C960        C961   1.403       .  A
C961        C962   1.397       .  A
C961        H969   1.084       .  S
C962        H970   1.080       .  S
C963        H971   1.087       .  S
C963        C964   1.346       .  D
C964        H972   1.083       .  S
C965        H973   1.087       .  S
C965        C966   1.346       .  D
C966        H974   1.084       .  S
C975        C983   1.490       .  S
C975        C976   1.404       .  A
C975        C980   1.409       .  A
C976        C977   1.398       .  A
C976        H985   1.083       .  S
C977        C978   1.407       .  A
C977        H986   1.081       .  S
C978        C981   1.486       .  S
C978        C979   1.403       .  A
C979        C980   1.398       .  A
C979        H987   1.083       .  S
C980        H988   1.080       .  S
C981        H989   1.087       .  S
C981        C982   1.345       .  D
C982        H990   1.084       .  S
C983        H991   1.087       .  S
C983        C984   1.347       .  D
C984        H992   1.083       .  S
C993       C1001   1.493       .  S
C993        C994   1.406       .  A
C993        C998   1.407       .  A
C994        C995   1.405       .  A
C994       H1003   1.083   1_554  S
C995        C996   1.409       .  A
C995       H1004   1.081   1_554  S
C996        C999   1.488       .  S
C996        C997   1.402       .  A
C997        C998   1.394       .  A
C997       H1005   1.084       .  S
C998       H1006   1.081       .  S
C999       H1007   1.087       .  S
C999       C1000   1.347       .  D
C1000      H1008   1.084   1_554  S
C1001      H1009   1.087       .  S
C1001      C1002   1.347       .  D
C1002      H1010   1.084       .  S
C1011      C1019   1.488       .  S
C1011      C1012   1.404       .  A
C1011      C1016   1.410       .  A
C1012      C1013   1.394       .  A
C1012      H1021   1.084       .  S
C1013      C1014   1.405       .  A
C1013      H1022   1.083       .  S
C1014      C1017   1.485       .  S
C1014      C1015   1.403       .  A
C1015      C1016   1.403       .  A
C1015      H1023   1.083       .  S
C1016      H1024   1.080       .  S
C1017      H1025   1.087       .  S
C1017      C1018   1.344       .  D
C1018      H1026   1.086       .  S
C1019      H1027   1.087       .  S
C1019      C1020   1.347       .  D
C1020      H1028   1.083       .  S
C1029      C1037   1.490       .  S
C1029      C1030   1.404       .  A
C1029      C1034   1.408       .  A
C1030      C1031   1.398       .  A
C1030      H1039   1.084       .  S
C1031      C1032   1.408       .  A
C1031      H1040   1.080       .  S
C1032      C1035   1.488       .  S
C1032      C1033   1.404       .  A
C1033      C1034   1.399       .  A
C1033      H1041   1.084       .  S
C1034      H1042   1.080       .  S
C1035      H1043   1.087       .  S
C1035      C1036   1.346       .  D
C1036      H1044   1.084       .  S
C1037      H1045   1.087       .  S
C1037      C1038   1.346       .  D
C1038      H1046   1.084       .  S
C1047      C1055   1.492       .  S
C1047      C1048   1.405       .  A
C1047      C1052   1.410       .  A
C1048      C1049   1.398       .  A
C1048      H1057   1.083       .  S
C1049      C1050   1.406       .  A
C1049      H1058   1.082       .  S
C1050      C1053   1.487       .  S
C1050      C1051   1.403       .  A
C1051      C1052   1.400       .  A
C1051      H1059   1.083       .  S
C1052      H1060   1.079       .  S
C1053      H1061   1.087       .  S
C1053      C1054   1.346       .  D
C1054      H1062   1.085       .  S
C1055      H1063   1.087       .  S
C1055      C1056   1.348       .  D
C1056      H1064   1.082       .  S
C1065      C1073   1.493       .  S
C1065      C1066   1.405       .  A
C1065      C1070   1.408       .  A
C1066      C1067   1.399       .  A
C1066      H1075   1.084       .  S
C1067      C1068   1.409       .  A
C1067      H1076   1.080       .  S
C1068      C1071   1.493       .  S
C1068      C1069   1.405       .  A
C1069      C1070   1.399       .  A
C1069      H1077   1.083       .  S
C1070      H1078   1.079       .  S
C1071      H1079   1.087       .  S
C1071      C1072   1.348       .  D
C1072      H1080   1.082       .  S
C1073      H1081   1.087       .  S
C1073      C1074   1.349       .  D
C1074      H1082   1.082       .  S
C1083      C1091   1.490       .  S
C1083      C1084   1.404       .  A
C1083      C1088   1.408       .  A
C1084      C1085   1.399       .  A
C1084      H1093   1.083       .  S
C1085      C1086   1.409       .  A
C1085      H1094   1.079       .  S
C1086      C1089   1.491       .  S
C1086      C1087   1.405       .  A
C1087      C1088   1.398       .  A
C1087      H1095   1.084       .  S
C1088      H1096   1.080       .  S
C1089      H1097   1.087       .  S
C1089      C1090   1.348       .  D
C1090      H1098   1.082       .  S
C1091      H1099   1.087       .  S
C1091      C1092   1.346       .  D
C1092      H1100   1.083       .  S
C1101      C1109   1.493       .  S
C1101      C1102   1.405       .  A
C1101      C1106   1.409   1_455  A
C1102      C1103   1.399   1_455  A
C1102      H1111   1.084       .  S
C1103      C1104   1.407       .  A
C1103      H1112   1.081   1_655  S
C1104      C1107   1.491       .  S
C1104      C1105   1.404       .  A
C1105      C1106   1.400       .  A
C1105      H1113   1.084       .  S
C1106      H1114   1.079       .  S
C1107      H1115   1.087       .  S
C1107      C1108   1.347   1_554  D
C1108      H1116   1.084       .  S
C1109      H1117   1.087       .  S
C1109      C1110   1.349       .  D
C1110      H1118   1.082   1_455  S
C1119      C1127   1.491       .  S
C1119      C1120   1.402       .  A
C1119      C1124   1.410       .  A
C1120      C1121   1.396   1_655  A
C1120      H1129   1.083   1_655  S
C1121      C1122   1.409       .  A
C1121      H1130   1.079       .  S
C1122      C1125   1.494       .  S
C1122      C1123   1.405   1_455  A
C1123      C1124   1.402       .  A
C1123      H1131   1.083       .  S
C1124      H1132   1.080       .  S
C1125      H1133   1.087       .  S
C1125      C1126   1.347       .  D
C1126      H1134   1.082       .  S
C1127      H1135   1.087       .  S
C1127      C1128   1.346       .  D
C1128      H1136   1.083       .  S
C1137      C1145   1.494       .  S
C1137      C1138   1.406       .  A
C1137      C1142   1.408       .  A
C1138      C1139   1.402       .  A
C1138      H1147   1.083       .  S
C1139      C1140   1.407       .  A
C1139      H1148   1.081       .  S
C1140      C1143   1.491       .  S
C1140      C1141   1.405       .  A
C1141      C1142   1.399       .  A
C1141      H1149   1.084       .  S
C1142      H1150   1.080       .  S
C1143      H1151   1.087       .  S
C1143      C1144   1.349       .  D
C1144      H1152   1.084       .  S
C1145      H1153   1.087       .  S
C1145      C1146   1.349       .  D
C1146      H1154   1.083       .  S
C1155      C1163   1.492       .  S
C1155      C1156   1.405       .  A
C1155      C1160   1.407       .  A
C1156      C1157   1.404       .  A
C1156      H1165   1.083       .  S
C1157      C1158   1.410       .  A
C1157      H1166   1.080       .  S
C1158      C1161   1.492       .  S
C1158      C1159   1.404       .  A
C1159      C1160   1.395       .  A
C1159      H1167   1.084       .  S
C1160      H1168   1.081       .  S
C1161      H1169   1.087       .  S
C1161      C1162   1.348       .  D
C1162      H1170   1.083       .  S
C1163      H1171   1.087       .  S
C1163      C1164   1.346       .  D
C1164      H1172   1.085       .  S
C1173      C1181   1.489       .  S
C1173      C1174   1.404       .  A
C1173      C1178   1.407       .  A
C1174      C1175   1.400       .  A
C1174      H1183   1.083       .  S
C1175      C1176   1.407       .  A
C1175      H1184   1.081       .  S
C1176      C1179   1.489       .  S
C1176      C1177   1.404       .  A
C1177      C1178   1.399       .  A
C1177      H1185   1.083       .  S
C1178      H1186   1.081       .  S
C1179      H1187   1.087       .  S
C1179      C1180   1.347       .  D
C1180      H1188   1.084       .  S
C1181      H1189   1.087       .  S
C1181      C1182   1.346       .  D
C1182      H1190   1.085       .  S
C1191      C1199   1.492       .  S
C1191      C1192   1.404       .  A
C1191      C1196   1.408   1_455  A
C1192      C1193   1.400       .  A
C1192      H1201   1.084       .  S
C1193      C1194   1.409   1_455  A
C1193      H1202   1.080       .  S
C1194      C1197   1.493       .  S
C1194      C1195   1.405       .  A
C1195      C1196   1.400       .  A
C1195      H1203   1.084       .  S
C1196      H1204   1.081       .  S
C1197      H1205   1.087       .  S
C1197      C1198   1.348       .  D
C1198      H1206   1.083       .  S
C1199      H1207   1.087       .  S
C1199      C1200   1.348       .  D
C1200      H1208   1.084       .  S
C1209      C1217   1.490   1_556  S
C1209      C1210   1.404   1_455  A
C1209      C1214   1.408       .  A
C1210      C1211   1.400       .  A
C1210      H1219   1.083   1_556  S
C1211      C1212   1.409       .  A
C1211      H1220   1.080       .  S
C1212      C1215   1.491       .  S
C1212      C1213   1.404   1_655  A
C1213      C1214   1.398       .  A
C1213      H1221   1.084       .  S
C1214      H1222   1.081       .  S
C1215      H1223   1.087       .  S
C1215      C1216   1.346       .  D
C1216      H1224   1.083       .  S
C1217      H1225   1.087       .  S
C1217      C1218   1.346       .  D
C1218      H1226   1.084       .  S
C1227      C1235   1.488       .  S
C1227      C1228   1.404       .  A
C1227      C1232   1.407       .  A
C1228      C1229   1.402       .  A
C1228      H1237   1.083       .  S
C1229      C1230   1.409       .  A
C1229      H1238   1.081       .  S
C1230      C1233   1.487       .  S
C1230      C1231   1.402       .  A
C1231      C1232   1.394       .  A
C1231      H1239   1.084       .  S
C1232      H1240   1.081       .  S
C1233      H1241   1.087       .  S
C1233      C1234   1.346       .  D
C1234      H1242   1.084       .  S
C1235      H1243   1.087       .  S
C1235      C1236   1.345       .  D
C1236      H1244   1.085       .  S
C1245      C1253   1.488       .  S
C1245      C1246   1.403       .  A
C1245      C1250   1.409   1_455  A
C1246      C1247   1.396       .  A
C1246      H1255   1.084       .  S
C1247      C1248   1.407   1_455  A
C1247      H1256   1.080   1_556  S
C1248      C1251   1.487   1_556  S
C1248      C1249   1.404       .  A
C1249      C1250   1.399       .  A
C1249      H1257   1.084       .  S
C1250      H1258   1.080       .  S
C1251      H1259   1.087       .  S
C1251      C1252   1.347       .  D
C1252      H1260   1.084       .  S
C1253      H1261   1.088       .  S
C1253      C1254   1.346       .  D
C1254      H1262   1.083   1_455  S
C1263      C1271   1.484       .  S
C1263      C1264   1.401   1_455  A
C1263      C1268   1.407       .  A
C1264      C1265   1.397       .  A
C1264      H1273   1.083       .  S
C1265      C1266   1.409       .  A
C1265      H1274   1.080       .  S
C1266      C1269   1.491       .  S
C1266      C1267   1.405   1_655  A
C1267      C1268   1.399       .  A
C1267      H1275   1.083       .  S
C1268      H1276   1.082       .  S
C1269      H1277   1.087       .  S
C1269      C1270   1.346       .  D
C1270      H1278   1.083       .  S
C1271      H1279   1.087       .  S
C1271      C1272   1.344       .  D
C1272      H1280   1.085       .  S
C1281      C1289   1.494       .  S
C1281      C1282   1.406       .  A
C1281      C1286   1.409       .  A
C1282      C1283   1.400       .  A
C1282      H1291   1.083       .  S
C1283      C1284   1.407       .  A
C1283      H1292   1.081       .  S
C1284      C1287   1.490       .  S
C1284      C1285   1.403       .  A
C1285      C1286   1.398       .  A
C1285      H1293   1.084       .  S
C1286      H1294   1.079       .  S
C1287      H1295   1.087       .  S
C1287      C1288   1.348       .  D
C1288      H1296   1.084       .  S
C1289      H1297   1.087       .  S
C1289      C1290   1.348       .  D
C1290      H1298   1.082       .  S
C1299      C1307   1.485   1_565  S
C1299      C1300   1.403       .  A
C1299      C1304   1.406       .  A
C1300      C1301   1.402       .  A
C1300      H1309   1.083       .  S
C1301      C1302   1.409       .  A
C1301      H1310   1.081       .  S
C1302      C1305   1.484       .  S
C1302      C1303   1.402       .  A
C1303      C1304   1.394       .  A
C1303      H1311   1.084       .  S
C1304      H1312   1.082   1_565  S
C1305      H1313   1.088       .  S
C1305      C1306   1.345       .  D
C1306      H1314   1.085       .  S
C1307      H1315   1.087       .  S
C1307      C1308   1.344       .  D
C1308      H1316   1.086       .  S
C1317      C1325   1.490       .  S
C1317      C1318   1.404       .  A
C1317      C1322   1.409       .  A
C1318      C1319   1.399       .  A
C1318      H1327   1.083       .  S
C1319      C1320   1.408       .  A
C1319      H1328   1.081       .  S
C1320      C1323   1.488       .  S
C1320      C1321   1.403       .  A
C1321      C1322   1.397       .  A
C1321      H1329   1.084       .  S
C1322      H1330   1.080       .  S
C1323      H1331   1.087       .  S
C1323      C1324   1.346       .  D
C1324      H1332   1.084       .  S
C1325      H1333   1.087       .  S
C1325      C1326   1.345       .  D
C1326      H1334   1.083       .  S
C1335      C1343   1.492       .  S
C1335      C1336   1.405       .  A
C1335      C1340   1.408       .  A
C1336      C1337   1.400       .  A
C1336      H1345   1.083       .  S
C1337      C1338   1.408   1_565  A
C1337      H1346   1.081       .  S
C1338      C1341   1.492       .  S
C1338      C1339   1.404       .  A
C1339      C1340   1.400   1_545  A
C1339      H1347   1.083       .  S
C1340      H1348   1.081       .  S
C1341      H1349   1.087       .  S
C1341      C1342   1.348       .  D
C1342      H1350   1.084       .  S
C1343      H1351   1.087       .  S
C1343      C1344   1.349       .  D
C1344      H1352   1.083       .  S
C1353      C1361   1.492   1_655  S
C1353      C1354   1.404   1_655  A
C1353      C1358   1.408       .  A
C1354      C1355   1.401   1_455  A
C1354      H1363   1.084       .  S
C1355      C1356   1.409       .  A
C1355      H1364   1.079       .  S
C1356      C1359   1.494       .  S
C1356      C1357   1.405       .  A
C1357      C1358   1.399       .  A
C1357      H1365   1.084       .  S
C1358      H1366   1.080       .  S
C1359      H1367   1.087       .  S
C1359      C1360   1.348       .  D
C1360      H1368   1.083       .  S
C1361      H1369   1.087       .  S
C1361      C1362   1.348       .  D
C1362      H1370   1.084   1_455  S
C1371      C1379   1.490       .  S
C1371      C1372   1.404       .  A
C1371      C1376   1.409       .  A
C1372      C1373   1.396       .  A
C1372      H1381   1.083       .  S
C1373      C1374   1.406       .  A
C1373      H1382   1.082   1_655  S
C1374      C1377   1.489   1_655  S
C1374      C1375   1.404       .  A
C1375      C1376   1.402       .  A
C1375      H1383   1.083       .  S
C1376      H1384   1.080       .  S
C1377      H1385   1.087   1_454  S
C1377      C1378   1.347       .  D
C1378      H1386   1.085       .  S
C1379      H1387   1.087       .  S
C1379      C1380   1.347       .  D
C1380      H1388   1.083       .  S
C1389      C1397   1.487       .  S
C1389      C1390   1.402       .  A
C1389      C1394   1.407       .  A
C1390      C1391   1.399       .  A
C1390      H1399   1.083       .  S
C1391      C1392   1.410       .  A
C1391      H1400   1.080       .  S
C1392      C1395   1.491       .  S
C1392      C1393   1.404       .  A
C1393      C1394   1.398       .  A
C1393      H1401   1.083       .  S
C1394      H1402   1.082       .  S
C1395      H1403   1.087       .  S
C1395      C1396   1.346       .  D
C1396      H1404   1.083       .  S
C1397      H1405   1.087       .  S
C1397      C1398   1.345       .  D
C1398      H1406   1.085       .  S
C1407      C1415   1.491       .  S
C1407      C1408   1.405       .  A
C1407      C1412   1.408       .  A
C1408      C1409   1.402       .  A
C1408      H1417   1.083       .  S
C1409      C1410   1.408       .  A
C1409      H1418   1.081       .  S
C1410      C1413   1.488       .  S
C1410      C1411   1.402       .  A
C1411      C1412   1.396       .  A
C1411      H1419   1.084       .  S
C1412      H1420   1.081       .  S
C1413      H1421   1.087       .  S
C1413      C1414   1.345       .  D
C1414      H1422   1.084       .  S
C1415      H1423   1.087       .  S
C1415      C1416   1.346       .  D
C1416      H1424   1.084       .  S
C1425      C1433   1.485       .  S
C1425      C1426   1.402       .  A
C1425      C1430   1.407       .  A
C1426      C1427   1.395       .  A
C1426      H1435   1.084       .  S
C1427      C1428   1.407       .  A
C1427      H1436   1.081       .  S
C1428      C1431   1.489       .  S
C1428      C1429   1.405       .  A
C1429      C1430   1.401       .  A
C1429      H1437   1.083       .  S
C1430      H1438   1.081       .  S
C1431      H1439   1.087       .  S
C1431      C1432   1.347       .  D
C1432      H1440   1.084       .  S
C1433      H1441   1.087       .  S
C1433      C1434   1.346       .  D
C1434      H1442   1.085       .  S
C1443      C1451   1.488       .  S
C1443      C1444   1.404       .  A
C1443      C1448   1.407       .  A
C1444      C1445   1.400       .  A
C1444      H1453   1.084       .  S
C1445      C1446   1.409       .  A
C1445      H1454   1.080       .  S
C1446      C1449   1.491       .  S
C1446      C1447   1.404       .  A
C1447      C1448   1.397       .  A
C1447      H1455   1.084       .  S
C1448      H1456   1.081       .  S
C1449      H1457   1.087       .  S
C1449      C1450   1.347       .  D
C1450      H1458   1.083       .  S
C1451      H1459   1.087       .  S
C1451      C1452   1.347       .  D
C1452      H1460   1.084       .  S
C1461      C1469   1.488       .  S
C1461      C1462   1.404       .  A
C1461      C1466   1.407       .  A
C1462      C1463   1.401       .  A
C1462      H1471   1.083       .  S
C1463      C1464   1.409       .  A
C1463      H1472   1.080       .  S
C1464      C1467   1.488       .  S
C1464      C1465   1.403       .  A
C1465      C1466   1.396       .  A
C1465      H1473   1.084       .  S
C1466      H1474   1.081       .  S
C1467      H1475   1.087       .  S
C1467      C1468   1.346       .  D
C1468      H1476   1.084       .  S
C1469      H1477   1.087       .  S
C1469      C1470   1.345       .  D
C1470      H1478   1.085       .  S
C1479      C1487   1.489       .  S
C1479      C1480   1.404       .  A
C1479      C1484   1.408       .  A
C1480      C1481   1.399       .  A
C1480      H1489   1.083       .  S
C1481      C1482   1.407       .  A
C1481      H1490   1.081       .  S
C1482      C1485   1.487       .  S
C1482      C1483   1.404       .  A
C1483      C1484   1.399       .  A
C1483      H1491   1.083       .  S
C1484      H1492   1.081       .  S
C1485      H1493   1.087       .  S
C1485      C1486   1.346       .  D
C1486      H1494   1.085       .  S
C1487      H1495   1.087       .  S
C1487      C1488   1.347       .  D
C1488      H1496   1.084       .  S
C1497      C1505   1.487       .  S
C1497      C1498   1.401       .  A
C1497      C1502   1.407       .  A
C1498      C1499   1.399       .  A
C1498      H1507   1.084       .  S
C1499      C1500   1.412       .  A
C1499      H1508   1.079       .  S
C1500      C1503   1.495       .  S
C1500      C1501   1.404       .  A
C1501      C1502   1.399       .  A
C1501      H1509   1.083       .  S
C1502      H1510   1.082       .  S
C1503      H1511   1.087       .  S
C1503      C1504   1.346       .  D
C1504      H1512   1.082       .  S
C1505      H1513   1.087       .  S
C1505      C1506   1.344       .  D
C1506      H1514   1.085       .  S
C1515      C1523   1.485       .  S
C1515      C1516   1.403       .  A
C1515      C1520   1.408   1_556  A
C1516      C1517   1.399       .  A
C1516      H1525   1.083       .  S
C1517      C1518   1.407   1_556  A
C1517      H1526   1.082       .  S
C1518      C1521   1.482       .  S
C1518      C1519   1.401       .  A
C1519      C1520   1.397       .  A
C1519      H1527   1.083       .  S
C1520      H1528   1.082       .  S
C1521      H1529   1.087       .  S
C1521      C1522   1.343       .  D
C1522      H1530   1.086   1_554  S
C1523      H1531   1.087       .  S
C1523      C1524   1.344       .  D
C1524      H1532   1.085   1_556  S
C1533      C1541   1.488       .  S
C1533      C1534   1.403       .  A
C1533      C1538   1.407       .  A
C1534      C1535   1.397       .  A
C1534      H1543   1.084       .  S
C1535      C1536   1.408       .  A
C1535      H1544   1.079       .  S
C1536      C1539   1.491       .  S
C1536      C1537   1.406       .  A
C1537      C1538   1.400       .  A
C1537      H1545   1.084       .  S
C1538      H1546   1.081       .  S
C1539      H1547   1.087       .  S
C1539      C1540   1.348       .  D
C1540      H1548   1.083       .  S
C1541      H1549   1.087       .  S
C1541      C1542   1.346       .  D
C1542      H1550   1.084       .  S
C1551      C1559   1.490       .  S
C1551      C1552   1.404       .  A
C1551      C1556   1.408       .  A
C1552      C1553   1.401       .  A
C1552      H1561   1.083       .  S
C1553      C1554   1.409       .  A
C1553      H1562   1.080       .  S
C1554      C1557   1.490       .  S
C1554      C1555   1.403       .  A
C1555      C1556   1.397       .  A
C1555      H1563   1.083       .  S
C1556      H1564   1.081       .  S
C1557      H1565   1.087       .  S
C1557      C1558   1.347       .  D
C1558      H1566   1.083       .  S
C1559      H1567   1.087       .  S
C1559      C1560   1.346       .  D
C1560      H1568   1.084       .  S
