geometry optimzed in LAMMPS
_audit_creation_date              2020-12-01 
_audit_creation_method            'lammps2cif' 
_symmetry_space_group_name_H-M    'P1' 
_symmetry_Int_Tables_number       1 
_symmetry_cell_setting            triclinic 
loop_ 
_symmetry_equiv_pos_as_xyz 
  x,y,z 
_cell_length_a                    46.11838843 
_cell_length_b                    46.130254279986964 
_cell_length_c                    46.16649463824156 
_cell_angle_alpha                 89.99275346951593 
_cell_angle_beta                  90.03827392061267 
_cell_angle_gamma                 90.0218030421429 
loop_ 
_atom_site_label 
_atom_site_type_symbol 
_atom_site_fract_x 
_atom_site_fract_y 
_atom_site_fract_z 
_atom_site_charge 
O1          O  0.20250586  0.86525978  0.28816931    -0.53000
C2          C  0.29121686  0.86228799  0.27529203     0.79600
O3          O  0.24537883  0.88381739  0.20199178    -0.54200
C4          C  0.18089055  0.87065485  0.27208272     0.79600
C5          C  0.23483631  0.94815452  0.26949250     0.82000
Cd6        Cd  0.23806621  0.88780964  0.25558061     1.37500
O7          O  0.26750270  0.85794056  0.28840286    -0.53000
O8          O  0.23776549  0.92901569  0.28884694    -0.51800
C9          C  0.23897833  0.85703208  0.20206821     0.81900
O10         O  0.23531052  0.93981382  0.24333900    -0.54200
O11         O  0.29108479  0.88062200  0.25492273    -0.52700
O12         O  0.18544126  0.88507715  0.24925507    -0.52700
O13         O  0.23178440  0.84581291  0.22591090    -0.51800
O14         O  0.23897460  0.12347394  0.32086360    -0.53000
C15         C  0.22528875  0.10911306  0.23460580     0.79600
O16         O  0.19213974  0.04199393  0.28822460    -0.54200
C17         C  0.22529064  0.11983245  0.34434683     0.79600
C18         C  0.15343305  0.12534620  0.29007864     0.82000
Cd19       Cd  0.20630677  0.09346095  0.29134361     1.37500
O20         O  0.24099340  0.11409994  0.25658976    -0.53000
O21         O  0.17756299  0.13563795  0.28239496    -0.51800
C22         C  0.21796711  0.03264156  0.28845377     0.81900
O23         O  0.15274420  0.09897179  0.29793224    -0.54200
O24         O  0.20164299  0.09587635  0.23866561    -0.52700
O25         O  0.20471684  0.10169927  0.34418113    -0.52700
O26         O  0.23797395  0.05097089  0.29224575    -0.51800
O27         O  0.21025184  0.72910741  0.90664795    -0.53000
C28         C  0.29820523  0.74584683  0.89949158     0.79600
O29         O  0.24992816  0.81783617  0.92084358    -0.54200
C30         C  0.18821748  0.74444510  0.91246111     0.79600
C31         C  0.24467366  0.75256668  0.98706839     0.82000
Cd32       Cd  0.24531322  0.76411379  0.92635425     1.37500
O33         O  0.27485217  0.73179447  0.89615663    -0.53000
O34         O  0.24774148  0.73250601  0.96869731    -0.51800
C35         C  0.24279050  0.81682017  0.89429462     0.81900
O36         O  0.24409857  0.77837526  0.97769430    -0.54200
O37         O  0.29798372  0.76648247  0.91752012    -0.52700
O38         O  0.19242333  0.76805260  0.92569488    -0.52700
O39         O  0.23649448  0.79237167  0.88381064    -0.51800
O40         O  0.24592192  0.76840157  0.15473511    -0.53000
C41         C  0.22931521  0.67980190  0.15698593     0.79600
O42         O  0.15834331  0.72924379  0.13424699    -0.54200
C43         C  0.23060734  0.79051097  0.14911948     0.79600
C44         C  0.22687287  0.73638870  0.07169828     0.82000
Cd45       Cd  0.21230175  0.73388317  0.13174374     1.37500
O46         O  0.24326664  0.70292157  0.16197678    -0.53000
O47         O  0.24604956  0.73294041  0.09094979    -0.51800
C48         C  0.15805535  0.73442592  0.16125876     0.81900
O49         O  0.20064672  0.73681628  0.07984261    -0.54200
O50         O  0.20945409  0.68092254  0.13812449    -0.52700
O51         O  0.20777102  0.78664996  0.13448078    -0.52700
O52         O  0.18198438  0.73975745  0.17338106    -0.51800
O53         O  0.85221616  0.73132537  0.74812334    -0.53000
C54         C  0.86288699  0.74443470  0.83586256     0.79600
O55         O  0.93286895  0.77554227  0.78344979    -0.54200
C56         C  0.85715069  0.74549959  0.72515443     0.79600
C57         C  0.85044720  0.81659641  0.78019216     0.82000
Cd58       Cd  0.88111049  0.76300519  0.77969532     1.37500
O59         O  0.85783705  0.72910775  0.81363855    -0.53000
O60         O  0.83877424  0.79239698  0.78525605    -0.51800
C61         C  0.94142348  0.74944281  0.78333664     0.81900
O62         O  0.87753005  0.81690697  0.77524314    -0.54200
O63         O  0.87745646  0.76736982  0.83235996    -0.52700
O64         O  0.87536314  0.76594078  0.72667716    -0.52700
O65         O  0.92249288  0.72996774  0.77973810    -0.51800
O66         O  0.11601882  0.69872324  0.77802132    -0.53000
C67         C  0.10243091  0.78548320  0.78981843     0.79600
O68         O  0.03587706  0.73236628  0.82543363    -0.54200
C69         C  0.11263246  0.67560149  0.79239875     0.79600
C70         C  0.11981533  0.73211296  0.86285783     0.82000
Cd71       Cd  0.08707838  0.72926300  0.81059752     1.37500
O72         O  0.10767749  0.76299880  0.77495149    -0.53000
O73         O  0.12983961  0.73869339  0.83832052    -0.51800
C74         C  0.02615419  0.73147672  0.79977639     0.81900
O75         O  0.09336443  0.72459262  0.86422273    -0.54200
O76         O  0.08897212  0.78215137  0.81341873    -0.52700
O77         O  0.09521251  0.67643803  0.81352601    -0.52700
O78         O  0.04420617  0.72744696  0.77960860    -0.51800
O79         O  0.20148311  0.11295422  0.77052692    -0.53000
C80         C  0.28977066  0.11441775  0.78915848     0.79600
O81         O  0.23771661  0.09294247  0.85903175    -0.54200
C82         C  0.17891363  0.10718465  0.78508056     0.79600
C83         C  0.23299044  0.02976109  0.79113592     0.82000
Cd84       Cd  0.23499252  0.08992198  0.80505381     1.37500
O85         O  0.26708705  0.11936142  0.77449058    -0.53000
O86         O  0.23675133  0.04880812  0.77183106    -0.51800
C87         C  0.23294189  0.12004736  0.85885197     0.81900
O88         O  0.23192802  0.03819709  0.81722729    -0.54200
O89         O  0.28788545  0.09601907  0.80937288    -0.52700
O90         O  0.18207952  0.09237803  0.80788887    -0.52700
O91         O  0.22871922  0.13200538  0.83464674    -0.51800
O92         O  0.24319281  0.86324369  0.80480968    -0.53000
C93         C  0.22240556  0.85893820  0.71758764     0.79600
O94         O  0.15280796  0.87901321  0.76975150    -0.54200
C95         C  0.22886898  0.86843380  0.82764424     0.79600
C96         C  0.21767316  0.94492217  0.77353057     0.82000
Cd97       Cd  0.20665816  0.88415024  0.77200838     1.37500
O98         O  0.23772135  0.85515393  0.74004355    -0.53000
O99         O  0.23776260  0.92687012  0.76900622    -0.51800
C100        C  0.15398302  0.85222499  0.77592728     0.81900
O101        O  0.19204643  0.93521466  0.77532433    -0.54200
O102        O  0.20158499  0.87666633  0.71940058    -0.52700
O103        O  0.20522007  0.88197627  0.82490287    -0.52700
O104        O  0.17863466  0.84138836  0.78067034    -0.51800
O105        O  0.11637780  0.27987195  0.29014483    -0.53000
C106        C  0.10216737  0.19271580  0.27877640     0.79600
O107        O  0.03496271  0.24617172  0.24494757    -0.54200
C108        C  0.11226400  0.30292916  0.27584254     0.79600
C109        C  0.11754498  0.24703167  0.20546639     0.82000
Cd110      Cd  0.08639715  0.24916103  0.25868624     1.37500
O111        O  0.10748541  0.21503988  0.29387642    -0.53000
O112        O  0.12867009  0.24117557  0.22973211    -0.51800
C113        C  0.02575440  0.24702669  0.27077726     0.81900
O114        O  0.09079535  0.25349835  0.20491490    -0.54200
O115        O  0.08859989  0.19633048  0.25526821    -0.52700
O116        O  0.09388436  0.30198758  0.25552742    -0.52700
O117        O  0.04420784  0.25100220  0.29062607    -0.51800
O118        O  0.85874420  0.24814181  0.25373932    -0.53000
C119        C  0.85495834  0.23247867  0.34224382     0.79600
O120        O  0.87738583  0.16073438  0.29388445    -0.54200
C121        C  0.86462650  0.23272093  0.23179764     0.79600
C122        C  0.94112706  0.22866760  0.28694108     0.82000
Cd123      Cd  0.88087350  0.21460160  0.28874708     1.37500
O124        O  0.85048441  0.24620679  0.31890947    -0.53000
O125        O  0.92195053  0.24799147  0.28989044    -0.51800
C126        C  0.85051903  0.16083321  0.28783252     0.81900
O127        O  0.93279946  0.20248679  0.28673501    -0.54200
O128        O  0.87356272  0.21235839  0.34161179    -0.52700
O129        O  0.87906581  0.20981895  0.23596921    -0.52700
O130        O  0.83898400  0.18487698  0.28183301    -0.51800
O131        O  0.72171424  0.86332341  0.25826533    -0.53000
C132        C  0.74211675  0.85975421  0.34563043     0.79600
O133        O  0.81193399  0.87934271  0.29338969    -0.54200
C134        C  0.73607797  0.86852300  0.23545250     0.79600
C135        C  0.74683923  0.94529017  0.28905160     0.82000
Cd136      Cd  0.75806993  0.88455678  0.29107340     1.37500
O137        O  0.72685650  0.85584787  0.32315584    -0.53000
O138        O  0.72681794  0.92716697  0.29365328    -0.51800
C139        C  0.81069951  0.85250593  0.28742436     0.81900
O140        O  0.77251805  0.93569827  0.28742988    -0.54200
O141        O  0.76299663  0.87742624  0.34375580    -0.52700
O142        O  0.75966206  0.88219005  0.23821279    -0.52700
O143        O  0.78601651  0.84167178  0.28279982    -0.51800
O144        O  0.76219224  0.11308538  0.29186001    -0.53000
C145        C  0.67383562  0.11459453  0.27370950     0.79600
O146        O  0.72530270  0.09369086  0.20347580    -0.54200
C147        C  0.78468406  0.10743712  0.27714496     0.79600
C148        C  0.73090617  0.02999049  0.27115490     0.82000
Cd149      Cd  0.72852534  0.09019640  0.25741158     1.37500
O150        O  0.69660132  0.11947559  0.28827507    -0.53000
O151        O  0.72715896  0.04897585  0.29051496    -0.51800
C152        C  0.73034995  0.12075161  0.20383889     0.81900
O153        O  0.73171973  0.03848607  0.24506745    -0.54200
O154        O  0.67559464  0.09626356  0.25342629    -0.52700
O155        O  0.78140675  0.09276159  0.25426757    -0.52700
O156        O  0.73495524  0.13245055  0.22809870    -0.51800
O157        O  0.23631371  0.27296452  0.90031937    -0.53000
C158        C  0.22244973  0.18561768  0.91257773     0.79600
O159        O  0.19126648  0.23948172  0.98127499    -0.54200
C160        C  0.22227922  0.29617135  0.90454658     0.79600
C161        C  0.15084302  0.24139655  0.89819650     0.82000
Cd162      Cd  0.20405403  0.24224407  0.92952747     1.37500
O163        O  0.23783090  0.20772916  0.90713615    -0.53000
O164        O  0.17510641  0.23541935  0.88713932    -0.51800
C165        C  0.21734817  0.23980988  0.98993189     0.81900
O166        O  0.15022408  0.24736836  0.92504590    -0.54200
O167        O  0.19952027  0.18943005  0.92705752    -0.52700
O168        O  0.20157184  0.29519450  0.92246271    -0.52700
O169        O  0.23688210  0.24305840  0.97103607    -0.51800
O170        O  0.20598827  0.24925861  0.15695647    -0.53000
C171        C  0.29334580  0.23062469  0.16054536     0.79600
O172        O  0.24360463  0.15963455  0.14079836    -0.54200
C173        C  0.18333348  0.23437889  0.15240545     0.79600
C174        C  0.23582398  0.22429246  0.07467617     0.82000
Cd175      Cd  0.23908063  0.21336787  0.13551972     1.37500
O176        O  0.27049678  0.24534281  0.16432097    -0.53000
O177        O  0.24058061  0.24443022  0.09260940    -0.51800
C178        C  0.23668005  0.16056099  0.16739012     0.81900
O179        O  0.23463869  0.19866625  0.08445084    -0.54200
O180        O  0.29197496  0.20970657  0.14290027    -0.52700
O181        O  0.18625526  0.21072894  0.13892067    -0.52700
O182        O  0.23043865  0.18496222  0.17798883    -0.51800
O183        O  0.85661604  0.21557255  0.77026679    -0.53000
C184        C  0.85192316  0.30342008  0.78822867     0.79600
O185        O  0.87343090  0.25397673  0.85910937    -0.54200
C186        C  0.86213545  0.19325079  0.78529903     0.79600
C187        C  0.93836782  0.24751982  0.79277766     0.82000
Cd188      Cd  0.87784033  0.24970155  0.80531954     1.37500
O189        O  0.84781057  0.28036189  0.77392887    -0.53000
O190        O  0.91976053  0.25148569  0.77307468    -0.51800
C191        C  0.84669930  0.24740153  0.85853198     0.81900
O192        O  0.92937967  0.24675368  0.81869273    -0.54200
O193        O  0.87033440  0.30251144  0.80851942    -0.52700
O194        O  0.87584216  0.19688335  0.80872548    -0.52700
O195        O  0.83561160  0.24152081  0.83425520    -0.51800
O196        O  0.10501769  0.24766769  0.80911351    -0.53000
C197        C  0.10892137  0.23238104  0.72048025     0.79600
O198        O  0.08630808  0.16056689  0.76824316    -0.54200
C199        C  0.09899039  0.23213166  0.83094529     0.79600
C200        C  0.02273476  0.22875022  0.77586525     0.82000
Cd201      Cd  0.08287866  0.21438951  0.77385748     1.37500
O202        O  0.11351191  0.24594501  0.74388844    -0.53000
O203        O  0.04200984  0.24797790  0.77282442    -0.51800
C204        C  0.11313088  0.16059042  0.77449887     0.81900
O205        O  0.03089960  0.20252102  0.77598658    -0.54200
O206        O  0.09012094  0.21242428  0.72098852    -0.52700
O207        O  0.08451867  0.20927477  0.82658606    -0.52700
O208        O  0.12464626  0.18456254  0.78084329    -0.51800
O209        O  0.72526760  0.20884769  0.15605636    -0.53000
C210        C  0.74092341  0.29734493  0.15895974     0.79600
O211        O  0.81292750  0.24838530  0.13803116    -0.54200
C212        C  0.74067872  0.18677896  0.15057709     0.79600
C213        C  0.74574476  0.24105751  0.07335253     0.82000
Cd214      Cd  0.75905686  0.24348895  0.13376562     1.37500
O215        O  0.72689952  0.27411702  0.16316598    -0.53000
O216        O  0.72618726  0.24412291  0.09225275    -0.51800
C217        C  0.81239606  0.24247666  0.16489677     0.81900
O218        O  0.77182752  0.24098637  0.08200654    -0.54200
O219        O  0.76155195  0.29643888  0.14094976    -0.52700
O220        O  0.76363943  0.19068497  0.13616953    -0.52700
O221        O  0.78814138  0.23668061  0.17608241    -0.51800
O222        O  0.75805002  0.24928251  0.90637625    -0.53000
C223        C  0.67069412  0.23045290  0.90254828     0.79600
O224        O  0.72057336  0.15967506  0.92279683    -0.54200
C225        C  0.78072184  0.23455730  0.91128059     0.79600
C226        C  0.72767117  0.22490803  0.98864403     0.82000
Cd227      Cd  0.72488675  0.21347013  0.92786966     1.37500
O228        O  0.69354358  0.24518117  0.89873529    -0.53000
O229        O  0.72294770  0.24486879  0.97050476    -0.51800
C230        C  0.72750990  0.16053728  0.89620347     0.81900
O231        O  0.72904360  0.19920501  0.97909771    -0.54200
O232        O  0.67202857  0.20964848  0.92033555    -0.52700
O233        O  0.77776706  0.21101865  0.92496306    -0.52700
O234        O  0.73367001  0.18493053  0.88552235    -0.51800
O235        O  0.76244037  0.86484018  0.77341148    -0.53000
C236        C  0.67396135  0.86203154  0.78771985     0.79600
O237        O  0.72093599  0.88382557  0.86032463    -0.54200
C238        C  0.78433408  0.87008944  0.78916927     0.79600
C239        C  0.73072508  0.94790495  0.79299605     0.82000
Cd240      Cd  0.72750941  0.88748864  0.80664066     1.37500
O241        O  0.69747740  0.85761894  0.77429014    -0.53000
O242        O  0.72749001  0.92889944  0.77356030    -0.51800
C243        C  0.72735548  0.85705654  0.86035620     0.81900
O244        O  0.73061112  0.93938839  0.81909145    -0.54200
O245        O  0.67445560  0.88036233  0.80807896    -0.52700
O246        O  0.78021557  0.88447821  0.81209150    -0.52700
O247        O  0.73423678  0.84567837  0.83650142    -0.51800
O248        O  0.72355533  0.11405437  0.80707474    -0.53000
C249        C  0.73954730  0.11990572  0.71930702     0.79600
O250        O  0.81195473  0.09929390  0.76613583    -0.54200
C251        C  0.73916102  0.10901538  0.82911495     0.79600
C252        C  0.74714655  0.03264458  0.77478794     0.82000
Cd253      Cd  0.75839542  0.09356098  0.77238308     1.37500
O254        O  0.72562093  0.12330403  0.74268398    -0.53000
O255        O  0.72702508  0.05084287  0.77103471    -0.51800
C256        C  0.81110983  0.12569072  0.77388089     0.81900
O257        O  0.77289923  0.04220335  0.77527612    -0.54200
O258        O  0.76033750  0.10204159  0.71960630    -0.52700
O259        O  0.76279940  0.09576480  0.82512178    -0.52700
O260        O  0.78689138  0.13590626  0.78135924    -0.51800
O261        O  0.11289399  0.73225774  0.31360877    -0.53000
C262        C  0.10283230  0.74429359  0.22576038     0.79600
O263        O  0.03237315  0.77597676  0.27739161    -0.54200
C264        C  0.10796346  0.74674808  0.33637334     0.79600
C265        C  0.11461041  0.81727491  0.28051851     0.82000
Cd266      Cd  0.08413081  0.76356212  0.28153196     1.37500
O267        O  0.10782841  0.72933972  0.24824798    -0.53000
O268        O  0.12631451  0.79310142  0.27546157    -0.51800
C269        C  0.02378766  0.74989353  0.27811194     0.81900
O270        O  0.08755876  0.81750965  0.28562377    -0.54200
O271        O  0.08799805  0.76711518  0.22879942    -0.52700
O272        O  0.08987187  0.76725187  0.33451535    -0.52700
O273        O  0.04271437  0.73049660  0.28206288    -0.51800
O274        O  0.85745108  0.76329997  0.28879151    -0.53000
C275        C  0.85213246  0.67585997  0.27146121     0.79600
O276        O  0.87126616  0.72440651  0.19947322    -0.54200
C277        C  0.86229534  0.78572532  0.27369036     0.79600
C278        C  0.93882672  0.73177045  0.26296532     0.82000
Cd279      Cd  0.87773132  0.72945302  0.25300850     1.37500
O280        O  0.84898968  0.69897501  0.28589613    -0.53000
O281        O  0.92109544  0.72759899  0.28339470    -0.51800
C282        C  0.84481949  0.73190229  0.20085605     0.81900
O283        O  0.92869775  0.73276632  0.23747707    -0.54200
O284        O  0.86940078  0.67664860  0.25021093    -0.52700
O285        O  0.87541264  0.78232690  0.24991274    -0.52700
O286        O  0.83485488  0.73864254  0.22537156    -0.51800
O287        O  0.75443643  0.72901619  0.15633683    -0.53000
C288        C  0.66655192  0.74657724  0.16264593     0.79600
O289        O  0.71536193  0.81807321  0.14209596    -0.54200
C290        C  0.77663453  0.74428220  0.15090776     0.79600
C291        C  0.72145608  0.75311220  0.07562419     0.82000
Cd292      Cd  0.71990029  0.76438939  0.13637183     1.37500
O293        O  0.68971006  0.73226253  0.16616012    -0.53000
O294        O  0.71778294  0.73300458  0.09384243    -0.51800
C295        C  0.72244806  0.81693668  0.16865462     0.81900
O296        O  0.72217746  0.77886746  0.08512699    -0.54200
O297        O  0.66716390  0.76722290  0.14463254    -0.52700
O298        O  0.77274598  0.76800985  0.13779419    -0.52700
O299        O  0.72873741  0.79244636  0.17904172    -0.51800
O300        O  0.72090472  0.76876630  0.90810408    -0.53000
C301        C  0.73743451  0.68017633  0.90610178     0.79600
O302        O  0.80848971  0.72975688  0.92813700    -0.54200
C303        C  0.73622519  0.79090102  0.91364718     0.79600
C304        C  0.74001025  0.73702289  0.99111200     0.82000
Cd305      Cd  0.75454924  0.73435012  0.93107642     1.37500
O306        O  0.72346820  0.70327384  0.90109075    -0.53000
O307        O  0.72084160  0.73357435  0.97185237    -0.51800
C308        C  0.80852036  0.73493907  0.90111812     0.81900
O309        O  0.76625004  0.73738999  0.98298997    -0.54200
O310        O  0.75738771  0.68136810  0.92486492    -0.52700
O311        O  0.75908536  0.78710524  0.92826606    -0.52700
O312        O  0.78448526  0.74026932  0.88921735    -0.51800
O313        O  0.25777723  0.22754700  0.65746593    -0.53000
C314        C  0.17027635  0.24662488  0.66019229     0.79600
O315        O  0.22104925  0.31720434  0.64117343    -0.54200
C316        C  0.28048196  0.24234501  0.65290702     0.79600
C317        C  0.22813059  0.25248955  0.57482793     0.82000
Cd318      Cd  0.22484657  0.26343392  0.63568536     1.37500
O319        O  0.19289155  0.23152144  0.66391904    -0.53000
O320        O  0.22349494  0.23233698  0.59277763    -0.51800
C321        C  0.22744900  0.31604312  0.66790035     0.81900
O322        O  0.22922731  0.27812485  0.58459442    -0.54200
O323        O  0.17201029  0.26770988  0.64277708    -0.52700
O324        O  0.27765793  0.26590175  0.63923015    -0.52700
O325        O  0.23306832  0.29148773  0.67850915    -0.51800
O326        O  0.22590594  0.26979357  0.40726245    -0.53000
C327        C  0.24160159  0.18146875  0.40409724     0.79600
O328        O  0.31360958  0.23037381  0.42518691    -0.54200
C329        C  0.24118213  0.29192549  0.41292350     0.79600
C330        C  0.24645732  0.23722636  0.49001326     0.82000
Cd331      Cd  0.25973750  0.23523912  0.42956685     1.37500
O332        O  0.22745509  0.20465959  0.40015158    -0.53000
O333        O  0.22690334  0.23425309  0.47106781    -0.51800
C334        C  0.31302524  0.23660724  0.39839471     0.81900
O335        O  0.27253477  0.23746344  0.48137891    -0.54200
O336        O  0.26240338  0.18236123  0.42193460    -0.52700
O337        O  0.26407021  0.28809922  0.42749714    -0.52700
O338        O  0.28875797  0.24259908  0.38731947    -0.51800
O339        O  0.19689599  0.61931050  0.78839567    -0.53000
C340        C  0.28351577  0.60689737  0.77207896     0.79600
O341        O  0.22883992  0.53758800  0.74322597    -0.54200
C342        C  0.17319915  0.61512980  0.77517354     0.79600
C343        C  0.22558313  0.62045771  0.70193662     0.82000
Cd344      Cd  0.22635067  0.58964005  0.75545674     1.37500
O345        O  0.26186313  0.61230544  0.78807745    -0.53000
O346        O  0.23249437  0.63171134  0.72585205    -0.51800
C347        C  0.22944010  0.52925253  0.76938187     0.81900
O348        O  0.21935020  0.59363270  0.70179745    -0.54200
O349        O  0.27901900  0.59239632  0.74928701    -0.52700
O350        O  0.17333648  0.59698316  0.75464218    -0.52700
O351        O  0.22673940  0.54841919  0.78873140    -0.51800
O352        O  0.22308133  0.36282328  0.75711473    -0.53000
C353        C  0.23856015  0.35791696  0.84500939     0.79600
O354        O  0.31115658  0.37821815  0.79842810    -0.54200
C355        C  0.23882619  0.36770477  0.73515404     0.79600
C356        C  0.24600989  0.44472123  0.78856332     0.82000
Cd357      Cd  0.25758865  0.38387484  0.79185848     1.37500
O358        O  0.22468200  0.35440010  0.82160260    -0.53000
O359        O  0.22594947  0.42641965  0.79218592    -0.51800
C360        C  0.31033588  0.35176150  0.79086524     0.81900
O361        O  0.27182795  0.43533774  0.78865912    -0.54200
O362        O  0.25934416  0.37580535  0.84471087    -0.52700
O363        O  0.26238844  0.38110321  0.73920491    -0.52700
O364        O  0.28613196  0.34147672  0.78337968    -0.51800
O365        O  0.60772185  0.26248479  0.26902204    -0.53000
C366        C  0.61186144  0.17438393  0.28681076     0.79600
O367        O  0.59106708  0.22416850  0.35778071    -0.54200
C368        C  0.60239103  0.28476699  0.28417084     0.79600
C369        C  0.52576184  0.23082763  0.29187089     0.82000
Cd370      Cd  0.58641627  0.22830392  0.30400892     1.37500
O371        O  0.61588229  0.19735731  0.27234412    -0.53000
O372        O  0.54421405  0.22714646  0.27199183    -0.51800
C373        C  0.61789310  0.23033007  0.35710038     0.81900
O374        O  0.53496149  0.23118525  0.31773192    -0.54200
O375        O  0.59370444  0.17547035  0.30729262    -0.52700
O376        O  0.58876090  0.28109257  0.30761719    -0.52700
O377        O  0.62896520  0.23593009  0.33276092    -0.51800
O378        O  0.35885486  0.23067981  0.30945631    -0.53000
C379        C  0.35463163  0.24564162  0.22089819     0.79600
O380        O  0.37751706  0.31775359  0.26879201    -0.54200
C381        C  0.36497096  0.24618439  0.33128599     0.79600
C382        C  0.44118195  0.24962665  0.27578029     0.82000
Cd383      Cd  0.38094988  0.26388595  0.27413956     1.37500
O384        O  0.35036087  0.23204585  0.24434218    -0.53000
O385        O  0.42188581  0.23034783  0.27323480    -0.51800
C386        C  0.35069556  0.31769982  0.27501288     0.81900
O387        O  0.43298108  0.27584402  0.27564166    -0.54200
O388        O  0.37320134  0.26581530  0.22129791    -0.52700
O389        O  0.37953118  0.26898223  0.32691842    -0.52700
O390        O  0.33916860  0.29368538  0.28115926    -0.51800
O391        O  0.73723300  0.20464249  0.66328750    -0.53000
C392        C  0.72319701  0.29175189  0.65073044     0.79600
O393        O  0.69206839  0.23730751  0.58195129    -0.54200
C394        C  0.72317372  0.18138500  0.65938133     0.79600
C395        C  0.65145375  0.23616251  0.66476341     0.82000
Cd396      Cd  0.70487092  0.23504802  0.63378099     1.37500
O397        O  0.73858015  0.26966684  0.65623895    -0.53000
O398        O  0.67564692  0.24235622  0.67589407    -0.51800
C399        C  0.71813739  0.23721536  0.57329634     0.81900
O400        O  0.65100123  0.22982090  0.63799649    -0.54200
O401        O  0.70032697  0.28789200  0.63613262    -0.52700
O402        O  0.70240388  0.18215186  0.64150275    -0.52700
O403        O  0.73771078  0.23432273  0.59223308    -0.51800
O404        O  0.70644820  0.22798329  0.40582039    -0.53000
C405        C  0.79387015  0.24688719  0.40277524     0.79600
O406        O  0.74346738  0.31762094  0.42234896    -0.54200
C407        C  0.68377540  0.24281911  0.41034442     0.79600
C408        C  0.73628116  0.25268099  0.48845376     0.82000
Cd409      Cd  0.73946874  0.26381748  0.42758886     1.37500
O410        O  0.77114196  0.23194719  0.39903272    -0.53000
O411        O  0.74086873  0.23258576  0.47043716    -0.51800
C412        C  0.73691774  0.31662372  0.39565237     0.81900
O413        O  0.73517313  0.27834052  0.47875138    -0.54200
O414        O  0.79233379  0.26786635  0.42033112    -0.52700
O415        O  0.68664803  0.26638011  0.42400197    -0.52700
O416        O  0.73115932  0.29214046  0.38495124    -0.51800
O417        O  0.22135689  0.77461717  0.66190551    -0.53000
C418        C  0.23421760  0.68701557  0.64906478     0.79600
O419        O  0.26428148  0.74118775  0.57996527    -0.54200
C420        C  0.23528533  0.79776056  0.65697574     0.79600
C421        C  0.30669798  0.74311917  0.66158611     0.82000
Cd422      Cd  0.25251448  0.74370535  0.63185909     1.37500
O423        O  0.21891964  0.70911671  0.65472699    -0.53000
O424        O  0.28272499  0.73792344  0.67365139    -0.51800
C425        C  0.23805999  0.74142721  0.57175971     0.81900
O426        O  0.30647707  0.74820962  0.63455550    -0.54200
O427        O  0.25704464  0.69090825  0.63444680    -0.52700
O428        O  0.25526156  0.79665761  0.63826434    -0.52700
O429        O  0.21883089  0.74453890  0.59098761    -0.51800
O430        O  0.25445174  0.74867689  0.40651584    -0.53000
C431        C  0.16643384  0.73219302  0.39944546     0.79600
O432        O  0.21440193  0.66017031  0.42102283    -0.54200
C433        C  0.27643124  0.73322851  0.41227945     0.79600
C434        C  0.22020053  0.72551533  0.48707062     0.82000
Cd435      Cd  0.21930277  0.71387813  0.42637925     1.37500
O436        O  0.18980579  0.74620360  0.39609404    -0.53000
O437        O  0.21725016  0.74558044  0.46867444    -0.51800
C438        C  0.22150717  0.66109227  0.39447106     0.81900
O439        O  0.22054784  0.69969332  0.47773222    -0.54200
O440        O  0.16661826  0.71163478  0.41756642    -0.52700
O441        O  0.27216329  0.70965916  0.42556299    -0.52700
O442        O  0.22793526  0.68547994  0.38392950    -0.51800
O443        O  0.61376341  0.23161881  0.81862854    -0.53000
C444        C  0.59930240  0.24566903  0.73170028     0.79600
O445        O  0.53117370  0.27536428  0.78713890    -0.54200
C446        C  0.60948279  0.24522829  0.84205721     0.79600
C447        C  0.61328424  0.31735525  0.78810128     0.82000
Cd448      Cd  0.58318115  0.26342657  0.78879836     1.37500
O449        O  0.60536823  0.23020227  0.75356910    -0.53000
O450        O  0.62488740  0.29340515  0.78188662    -0.51800
C451        C  0.52294087  0.24915342  0.78721415     0.81900
O452        O  0.58645342  0.31728964  0.79427237    -0.54200
O453        O  0.58472489  0.26845650  0.73599988    -0.52700
O454        O  0.59091601  0.26538812  0.84163034    -0.52700
O455        O  0.54221295  0.22988505  0.78991115    -0.51800
O456        O  0.34782609  0.19713072  0.79085126    -0.53000
C457        C  0.36160541  0.28435195  0.77955186     0.79600
O458        O  0.42898679  0.23122101  0.74554778    -0.54200
C459        C  0.35195049  0.17412875  0.77647486     0.79600
C460        C  0.34628827  0.22998603  0.70620228     0.82000
Cd461      Cd  0.37760254  0.22800435  0.75939097     1.37500
O462        O  0.35646279  0.26199205  0.79465998    -0.53000
O463        O  0.33523136  0.23592525  0.73046329    -0.51800
C464        C  0.43829321  0.23046005  0.77135770     0.81900
O465        O  0.37304430  0.22355146  0.70563596    -0.54200
O466        O  0.37508227  0.28081588  0.75599749    -0.52700
O467        O  0.37030301  0.17516181  0.75616574    -0.52700
O468        O  0.41992661  0.22643238  0.79125351    -0.51800
O469        O  0.74389377  0.61445177  0.75801657    -0.53000
C470        C  0.72422936  0.61891370  0.84559963     0.79600
O471        O  0.65398030  0.59880043  0.79391658    -0.54200
C472        C  0.72931148  0.60902873  0.73537565     0.79600
C473        C  0.71878413  0.53285570  0.78985011     0.82000
Cd474      Cd  0.70781427  0.59364112  0.79135455     1.37500
O475        O  0.73927473  0.62270485  0.82297980    -0.53000
O476        O  0.73898209  0.55093947  0.79382436    -0.51800
C477        C  0.65510561  0.62559565  0.78775940     0.81900
O478        O  0.69311967  0.54254307  0.78863539    -0.54200
O479        O  0.70339645  0.60116064  0.84401012    -0.52700
O480        O  0.70573038  0.59543579  0.73847523    -0.52700
O481        O  0.67973053  0.63645385  0.78290760    -0.51800
O482        O  0.76701575  0.35831502  0.78924800    -0.53000
C483        C  0.67905954  0.37079543  0.77776353     0.79600
O484        O  0.73286876  0.43955758  0.74603162    -0.54200
C485        C  0.78985552  0.36309483  0.77479688     0.79600
C486        C  0.73345131  0.35745110  0.70447158     0.82000
Cd487      Cd  0.73535206  0.38776664  0.75821965     1.37500
O488        O  0.70152402  0.36485456  0.79243145    -0.53000
O489        O  0.72885767  0.34563264  0.72867346    -0.51800
C490        C  0.73365060  0.44795682  0.77214937     0.81900
O491        O  0.73853333  0.38450491  0.70425679    -0.54200
O492        O  0.68241725  0.38568190  0.75503319    -0.52700
O493        O  0.78823635  0.38137384  0.75445185    -0.52700
O494        O  0.73695553  0.42885254  0.79147973    -0.51800
O495        O  0.60781251  0.71456436  0.78907153    -0.53000
C496        C  0.61276646  0.80185248  0.77130809     0.79600
O497        O  0.59335895  0.75271870  0.69965209    -0.54200
C498        C  0.60296670  0.69204600  0.77410932     0.79600
C499        C  0.52599830  0.74564038  0.76343401     0.82000
Cd500      Cd  0.58708750  0.74812921  0.75326053     1.37500
O501        O  0.61574344  0.77888595  0.78602059    -0.53000
O502        O  0.54382399  0.74977564  0.78381184    -0.51800
C503        C  0.61981592  0.74524622  0.70104197     0.81900
O504        O  0.53601559  0.74476934  0.73791036    -0.54200
O505        O  0.59559788  0.80089209  0.74996099    -0.52700
O506        O  0.58958637  0.69525553  0.75043315    -0.52700
O507        O  0.62987352  0.73874674  0.72559837    -0.51800
O508        O  0.35693383  0.74807671  0.74865956    -0.53000
C509        C  0.35678520  0.73090289  0.83669269     0.79600
O510        O  0.37693954  0.65989162  0.78602947    -0.54200
C511        C  0.36194361  0.73314872  0.72616988     0.79600
C512        C  0.44105123  0.72742357  0.77864888     0.82000
Cd513      Cd  0.38063619  0.71385352  0.78196356     1.37500
O514        O  0.35207850  0.74543448  0.81389922    -0.53000
O515        O  0.42213233  0.74684993  0.78245174    -0.51800
C516        C  0.34990188  0.66024203  0.78081125     0.81900
O517        O  0.43243322  0.70134610  0.77803197    -0.54200
O518        O  0.37467029  0.71021190  0.83492761    -0.52700
O519        O  0.37681621  0.71034764  0.72921115    -0.52700
O520        O  0.33831968  0.68447550  0.77574258    -0.51800
O521        O  0.70249608  0.61339812  0.27462722    -0.53000
C522        C  0.79107380  0.61575663  0.28838882     0.79600
O523        O  0.74420124  0.59464873  0.36133292    -0.54200
C524        C  0.68067270  0.60818273  0.29046596     0.79600
C525        C  0.73409478  0.53020478  0.29398383     0.82000
Cd526      Cd  0.73755113  0.59061627  0.30765053     1.37500
O527        O  0.76752151  0.62010543  0.27496928    -0.53000
O528        O  0.73703454  0.54926182  0.27455315    -0.51800
C529        C  0.73800098  0.62147393  0.36112557     0.81900
O530        O  0.73460326  0.53865729  0.32009979    -0.54200
O531        O  0.79062154  0.59759466  0.30890497    -0.52700
O532        O  0.68487099  0.59372900  0.31334545    -0.52700
O533        O  0.73124143  0.63271204  0.33715959    -0.51800
O534        O  0.74087160  0.36374588  0.30661303    -0.53000
C535        C  0.72490127  0.35888883  0.21877059     0.79600
O536        O  0.65254267  0.37890823  0.26573214    -0.54200
C537        C  0.72522846  0.36852069  0.32866435     0.79600
C538        C  0.71745051  0.44559991  0.27519930     0.82000
Cd539      Cd  0.70610914  0.38470654  0.27206614     1.37500
O540        O  0.73897618  0.35544687  0.24207255    -0.53000
O541        O  0.73754799  0.42740278  0.27134577    -0.51800
C542        C  0.65347107  0.35241675  0.27315998     0.81900
O543        O  0.69167700  0.43608273  0.27544439    -0.54200
O544        O  0.70401556  0.37663752  0.21923714    -0.52700
O545        O  0.70160654  0.38183912  0.32475724    -0.52700
O546        O  0.67773033  0.34217916  0.28050885    -0.51800
O547        O  0.71008480  0.74795304  0.65680736    -0.53000
C548        C  0.79805596  0.73087632  0.66272152     0.79600
O549        O  0.74931071  0.65929453  0.64177207    -0.54200
C550        C  0.68790918  0.73277983  0.65101624     0.79600
C551        C  0.74329057  0.72504867  0.57576532     0.82000
Cd552      Cd  0.74472756  0.71303639  0.63637394     1.37500
O553        O  0.77486890  0.74512908  0.66626441    -0.53000
O554        O  0.74665241  0.74495735  0.59425683    -0.51800
C555        C  0.74237153  0.66030344  0.66836754     0.81900
O556        O  0.74277856  0.69916354  0.58494001    -0.54200
O557        O  0.79746609  0.71025642  0.64468268    -0.52700
O558        O  0.69184537  0.70929958  0.63748328    -0.52700
O559        O  0.73611963  0.68473831  0.67888811    -0.51800
O560        O  0.74465335  0.71012609  0.40835951    -0.53000
C561        C  0.72875088  0.79880534  0.40632445     0.79600
O562        O  0.65718818  0.74968867  0.42793983    -0.54200
C563        C  0.72924365  0.68806053  0.41391350     0.79600
C564        C  0.72523849  0.74192428  0.49127488     0.82000
Cd565      Cd  0.71108516  0.74474573  0.43113772     1.37500
O566        O  0.74260132  0.77562007  0.40142622    -0.53000
O567        O  0.74454759  0.74524850  0.47216013    -0.51800
C568        C  0.65717669  0.74448992  0.40092798     0.81900
O569        O  0.69904588  0.74180127  0.48296526    -0.54200
O570        O  0.70865477  0.79773699  0.42491334    -0.52700
O571        O  0.70634228  0.69199233  0.42839954    -0.52700
O572        O  0.68120913  0.73901995  0.38911462    -0.51800
O573        O  0.22092256  0.61472813  0.30502329    -0.53000
C574        C  0.24180060  0.61873194  0.21783707     0.79600
O575        O  0.31124946  0.59852402  0.27003113    -0.54200
C576        C  0.23514063  0.60938591  0.32791111     0.79600
C577        C  0.24603739  0.53282367  0.27406266     0.82000
Cd578      Cd  0.25737521  0.59354799  0.27236709     1.37500
O579        O  0.22646472  0.62262054  0.24024115    -0.53000
O580        O  0.22605096  0.55096499  0.26940845    -0.51800
C581        C  0.31020119  0.62527628  0.27637637     0.81900
O582        O  0.27171103  0.54240806  0.27589384    -0.54200
O583        O  0.26255112  0.60093062  0.21975655    -0.52700
O584        O  0.25868851  0.59565828  0.32525406    -0.52700
O585        O  0.28560999  0.63615429  0.28130279    -0.51800
O586        O  0.26232447  0.36500913  0.27122478    -0.53000
C587        C  0.17416633  0.36288539  0.28916867     0.79600
O588        O  0.22528209  0.38464794  0.35955794    -0.54200
C589        C  0.28484600  0.37092571  0.28581956     0.79600
C590        C  0.23047457  0.44803397  0.29175705     0.82000
Cd591      Cd  0.22862531  0.38782961  0.30560556     1.37500
O592        O  0.19700860  0.35816043  0.27471430    -0.53000
O593        O  0.22691509  0.42898559  0.27241802    -0.51800
C594        C  0.23068804  0.35766289  0.35941270     0.81900
O595        O  0.23136701  0.43958224  0.31785356    -0.54200
O596        O  0.17573865  0.38125473  0.30943275    -0.52700
O597        O  0.28157312  0.38573018  0.30861003    -0.52700
O598        O  0.23555480  0.34586805  0.33525894    -0.51800
O599        O  0.61241350  0.74688976  0.24799722    -0.53000
C600        C  0.60244234  0.73469887  0.33587297     0.79600
O601        O  0.53214913  0.70264344  0.28403394    -0.54200
C602        C  0.60762939  0.73232013  0.22524349     0.79600
C603        C  0.61457737  0.66179298  0.28125314     0.82000
Cd604      Cd  0.58385890  0.71537405  0.28005037     1.37500
O605        O  0.60738567  0.74971353  0.31341697    -0.53000
O606        O  0.62621079  0.68604386  0.28616750    -0.51800
C607        C  0.52344845  0.72868932  0.28366102     0.81900
O608        O  0.58751895  0.66142861  0.27615182    -0.54200
O609        O  0.58776051  0.71177662  0.33276075    -0.52700
O610        O  0.58965858  0.71169618  0.22707609    -0.52700
O611        O  0.54227494  0.74822421  0.27986766    -0.51800
O612        O  0.34891495  0.77888277  0.27762442    -0.53000
C613        C  0.36208889  0.69190770  0.28984234     0.79600
O614        O  0.42879183  0.74539432  0.32537326    -0.54200
C615        C  0.35195255  0.80187077  0.29229507     0.79600
C616        C  0.34481348  0.74530550  0.36259243     0.82000
Cd617      Cd  0.37758210  0.74819429  0.31040227     1.37500
O618        O  0.35671659  0.71436270  0.27496071    -0.53000
O619        O  0.33477372  0.73881193  0.33802594    -0.51800
C620        C  0.43855993  0.74621909  0.29974487     0.81900
O621        O  0.37128745  0.75274125  0.36401415    -0.54200
O622        O  0.37580716  0.69528724  0.31330407    -0.52700
O623        O  0.36909042  0.80091761  0.31366577    -0.52700
O624        O  0.42051454  0.75003194  0.27950137    -0.51800
C625        C  0.49360338  0.73595903  0.28834088    -0.08500
C626        C  0.46868258  0.74170737  0.29362414    -0.10000
C627        C  0.33527084  0.64345635  0.27809946    -0.08500
C628        C  0.35071578  0.66414617  0.28188695    -0.10000
C629        C  0.23960323  0.50278604  0.27842922    -0.08500
C630        C  0.23448098  0.47786640  0.28422229    -0.10000
C631        C  0.61523832  0.74181746  0.36324730    -0.08500
C632        C  0.63151824  0.74448190  0.38347240    -0.10000
C633        C  0.73290122  0.73732940  0.52100160    -0.08500
C634        C  0.73882936  0.73178377  0.54580055    -0.10000
C635        C  0.63230197  0.63633830  0.28164190    -0.08500
C636        C  0.65282311  0.62040830  0.28416703    -0.10000
C637        C  0.73597092  0.66016689  0.40204192    -0.08500
C638        C  0.73839043  0.63941659  0.38640997    -0.10000
C639        C  0.72932554  0.50039583  0.28650894    -0.08500
C640        C  0.72386658  0.47558918  0.28035791    -0.10000
C641        C  0.65978894  0.74049594  0.66164183    -0.08500
C642        C  0.63861363  0.74405097  0.67644327    -0.10000
C643        C  0.49585482  0.74082984  0.76928058    -0.08500
C644        C  0.47091455  0.73486243  0.77426876    -0.10000
C645        C  0.73768063  0.62018357  0.70766163    -0.08500
C646        C  0.74136741  0.63538499  0.68679111    -0.10000
C647        C  0.63006916  0.64381304  0.78608554    -0.08500
C648        C  0.61454648  0.66442399  0.78223385    -0.10000
C649        C  0.72984319  0.47780457  0.77971327    -0.08500
C650        C  0.72494935  0.50276155  0.78552171    -0.10000
C651        C  0.63082736  0.34294285  0.78791368    -0.08500
C652        C  0.65133760  0.35883261  0.78503589    -0.10000
C653        C  0.46825817  0.23530637  0.77799354    -0.08500
C654        C  0.49311335  0.24141890  0.78320541    -0.10000
C655        C  0.30469119  0.74075201  0.40186071    -0.08500
C656        C  0.32596086  0.74418142  0.38715713    -0.10000
C657        C  0.22255786  0.63611373  0.37614218    -0.08500
C658        C  0.22643142  0.62077084  0.35541738    -0.10000
C659        C  0.34899111  0.74021717  0.69885638    -0.08500
C660        C  0.33252884  0.74293784  0.67878718    -0.10000
C661        C  0.23029891  0.73721526  0.54200337    -0.08500
C662        C  0.22443453  0.73198383  0.51712330    -0.10000
C663        C  0.73588706  0.34161173  0.37732122    -0.08500
C664        C  0.73260304  0.35700522  0.35652084    -0.10000
C665        C  0.73272560  0.33993586  0.67889634    -0.08500
C666        C  0.72990937  0.31953127  0.66287878    -0.10000
C667        C  0.62620875  0.23644975  0.68277215    -0.08500
C668        C  0.61074802  0.23909945  0.70361135    -0.10000
C669        C  0.72540313  0.24132440  0.54337770    -0.08500
C670        C  0.73132830  0.24640340  0.51846734    -0.10000
C671        C  0.31254857  0.35903865  0.27838508    -0.08500
C672        C  0.33308325  0.34322505  0.27535305    -0.10000
C673        C  0.62868402  0.33376539  0.27342449    -0.08500
C674        C  0.61359315  0.31269605  0.27651743    -0.10000
C675        C  0.63591832  0.23124703  0.38232441    -0.08500
C676        C  0.65637429  0.23473850  0.39815771    -0.10000
C677        C  0.49582221  0.23574037  0.28516773    -0.08500
C678        C  0.47099651  0.24189409  0.27987371    -0.10000
C679        C  0.33518426  0.33320224  0.79057156    -0.08500
C680        C  0.35034246  0.31220552  0.78737151    -0.10000
C681        C  0.31150586  0.61896225  0.77811854    -0.08500
C682        C  0.33212457  0.63480567  0.78050630    -0.10000
C683        C  0.22747160  0.65912615  0.66096958    -0.08500
C684        C  0.22508283  0.63838437  0.67663115    -0.10000
C685        C  0.23408594  0.49945420  0.77699090    -0.08500
C686        C  0.23952398  0.47467451  0.78327080    -0.10000
C687        C  0.23144816  0.34018343  0.38500474    -0.08500
C688        C  0.23434120  0.31974140  0.40095529    -0.10000
C689        C  0.35360157  0.23964060  0.35941331    -0.08500
C690        C  0.33820653  0.23698224  0.38030042    -0.10000
C691        C  0.32831413  0.23080088  0.68094262    -0.08500
C692        C  0.30787028  0.23424483  0.66508956    -0.10000
C693        C  0.23162210  0.35624065  0.70723572    -0.08500
C694        C  0.22844496  0.34092877  0.68636264    -0.10000
C695        C  0.23315787  0.24629616  0.54481931    -0.08500
C696        C  0.23914913  0.24127057  0.51992060    -0.10000
C697        C  0.73234793  0.65441955  0.88938789    -0.08500
C698        C  0.72916861  0.63593960  0.87116777    -0.10000
C699        C  0.62374355  0.73758540  0.19914665    -0.08500
C700        C  0.64147366  0.74109575  0.18025229    -0.10000
C701        C  0.72605383  0.74672596  0.04561039    -0.08500
C702        C  0.73213875  0.74143183  0.02080310    -0.19600
C703        C  0.83498332  0.65058412  0.27762820    -0.08500
C704        C  0.81656688  0.63249808  0.28198664    -0.10000
C705        C  0.82594076  0.73288424  0.17628931    -0.08500
C706        C  0.80472914  0.73640086  0.16150643    -0.10000
C707        C  0.12399443  0.74149261  0.36253970    -0.08500
C708        C  0.14157931  0.73789376  0.38157141    -0.10000
C709        C  0.99394411  0.74242476  0.27370085    -0.08500
C710        C  0.96899400  0.73649319  0.26872846    -0.10000
C711        C  0.73338889  0.13736608  0.69425398    -0.08500
C712        C  0.72921848  0.15588865  0.67624400    -0.10000
C713        C  0.64845841  0.84521569  0.78149352    -0.08500
C714        C  0.62999803  0.82712851  0.77728721    -0.10000
C715        C  0.72946890  0.81870988  0.90159638    -0.08500
C716        C  0.72703052  0.83932470  0.88578720    -0.10000
C717        C  0.73538913  0.97773392  0.78556408    -0.08500
C718        C  0.74077962  0.00259582  0.77959992    -0.10000
C719        C  0.64510499  0.23578935  0.88559750    -0.08500
C720        C  0.62670598  0.23947319  0.86735808    -0.10000
C721        C  0.73174970  0.12021997  0.85707082    -0.08500
C722        C  0.72847726  0.13551395  0.87793415    -0.10000
C723        C  0.73502029  0.32296527  0.17566263    -0.08500
C724        C  0.73096585  0.34153045  0.19364205    -0.10000
C725        C  0.73252626  0.23140221  0.01861834    -0.08500
C726        C  0.73844438  0.23670872  0.04348160    -0.10000
C727        C  0.12608757  0.23792293  0.69511955    -0.08500
C728        C  0.14454000  0.24142449  0.67692392    -0.10000
C729        C  0.83455557  0.32873410  0.78312254    -0.08500
C730        C  0.81581057  0.34667650  0.77986317    -0.10000
C731        C  0.85103318  0.16531545  0.77754538    -0.08500
C732        C  0.83594071  0.14427011  0.77432147    -0.10000
C733        C  0.82876259  0.24636361  0.88378247    -0.08500
C734        C  0.80823732  0.24273715  0.89946429    -0.10000
C735        C  0.96824038  0.24270653  0.78579827    -0.08500
C736        C  0.99299577  0.23655706  0.78023997    -0.10000
C737        C  0.31897108  0.23608874  0.17740848    -0.08500
C738        C  0.33739472  0.23984776  0.19561132    -0.10000
C739        C  0.22826703  0.32185660  0.88796660    -0.08500
C740        C  0.23240203  0.34049053  0.87007207    -0.10000
C741        C  0.12570028  0.24125519  0.88002486    -0.08500
C742        C  0.11034895  0.23869924  0.85907802    -0.10000
C743        C  0.22469348  0.23559720  0.01980795    -0.08500
C744        C  0.23074361  0.23050114  0.04468158    -0.10000
C745        C  0.64782613  0.13099059  0.27856811    -0.08500
C746        C  0.62911050  0.14898478  0.28171284    -0.10000
C747        C  0.73387975  0.15894146  0.16252421    -0.08500
C748        C  0.73103977  0.13841115  0.17837005    -0.10000
C749        C  0.73732342  0.84292473  0.37134856    -0.08500
C750        C  0.73408374  0.82451933  0.38962980    -0.10000
C751        C  0.72746115  0.85708324  0.20792459    -0.08500
C752        C  0.72360206  0.84179133  0.18715074    -0.10000
C753        C  0.85100532  0.81346626  0.28180523    -0.08500
C754        C  0.83566620  0.83420315  0.28569434    -0.10000
C755        C  0.73517710  0.00018726  0.27866859    -0.08500
C756        C  0.74042267  0.97530845  0.28452744    -0.10000
C757        C  0.83788259  0.23805217  0.36765869    -0.08500
C758        C  0.81951594  0.24162060  0.38592714    -0.10000
C759        C  0.85312418  0.23946003  0.20376215    -0.08500
C760        C  0.83763812  0.24217119  0.18293322    -0.10000
C761        C  0.83287346  0.13532010  0.28752390    -0.08500
C762        C  0.81234978  0.11946341  0.28455065    -0.10000
C763        C  0.14827057  0.34631959  0.28419096    -0.08500
C764        C  0.12958931  0.32828668  0.28096744    -0.10000
C765        C  0.13544481  0.24607848  0.18018899    -0.08500
C766        C  0.15589568  0.24252029  0.16440200    -0.10000
C767        C  0.99579793  0.24232825  0.27749314    -0.08500
C768        C  0.97094923  0.23631315  0.28280179    -0.10000
C769        C  0.22706894  0.84193758  0.69196575    -0.08500
C770        C  0.23015503  0.82347147  0.67372609    -0.10000
C771        C  0.33461126  0.14875973  0.78146189    -0.08500
C772        C  0.31583133  0.13079855  0.78447791    -0.10000
C773        C  0.15127729  0.11921914  0.77759936    -0.08500
C774        C  0.13075817  0.13507476  0.77465642    -0.10000
C775        C  0.23212310  0.13746738  0.88447351    -0.08500
C776        C  0.22923876  0.15785244  0.90048631    -0.10000
C777        C  0.22899026  0.99994039  0.78357285    -0.08500
C778        C  0.22394809  0.97500040  0.77781069    -0.10000
C779        C  0.12963145  0.65023683  0.78625960    -0.08500
C780        C  0.14789286  0.63203811  0.78179702    -0.10000
C781        C  0.11364954  0.81323907  0.78166607    -0.08500
C782        C  0.12898466  0.83397316  0.77772864    -0.10000
C783        C  0.84094687  0.74003231  0.69913965    -0.08500
C784        C  0.82316028  0.73641731  0.68029839    -0.10000
C785        C  0.85034040  0.73760297  0.86340636    -0.08500
C786        C  0.83418557  0.73502271  0.88371799    -0.10000
C787        C  0.83273613  0.84205756  0.78030601    -0.08500
C788        C  0.81218509  0.85795142  0.78276246    -0.10000
C789        C  0.97121948  0.74204760  0.78811879    -0.08500
C790        C  0.99608357  0.73616012  0.79352799    -0.10000
C791        C  0.23428240  0.65410984  0.17383372    -0.08500
C792        C  0.23724367  0.63568884  0.19215159    -0.10000
C793        C  0.13220336  0.73454519  0.17838960    -0.08500
C794        C  0.11575502  0.73723192  0.19845107    -0.10000
C795        C  0.32309066  0.74006802  0.88171967    -0.08500
C796        C  0.34071698  0.73633099  0.86277740    -0.10000
C797        C  0.13866250  0.73325297  0.88745073    -0.08500
C798        C  0.15995198  0.73676780  0.90213276    -0.10000
C799        C  0.24156419  0.84176160  0.87591188    -0.08500
C800        C  0.23759916  0.85707976  0.85517455    -0.10000
C801        C  0.24053544  0.74608469  0.01712829    -0.08500
C802        C  0.23469318  0.74075785  0.04198764    -0.10000
C803        C  0.23560595  0.15590315  0.38732519    -0.08500
C804        C  0.23145268  0.13732327  0.36937383    -0.10000
C805        C  0.23581293  0.13559714  0.18574003    -0.08500
C806        C  0.23261533  0.12033418  0.20663765    -0.10000
C807        C  0.12852927  0.14382577  0.28973661    -0.08500
C808        C  0.11335878  0.16481602  0.28654335    -0.10000
C809        C  0.33485831  0.82719321  0.28621391    -0.08500
C810        C  0.31654672  0.84537089  0.28184057    -0.10000
C811        C  0.15288313  0.85863826  0.27805326    -0.08500
C812        C  0.13227810  0.84277543  0.28033760    -0.10000
C813        C  0.23962941  0.83910639  0.17677462    -0.08500
C814        C  0.23733348  0.81837283  0.16109354    -0.10000
C815        C  0.23007262  0.97792592  0.27709051    -0.08500
C816        C  0.22453629  0.00269221  0.28330618    -0.10000
loop_ 
_geom_bond_atom_site_label_1 
_geom_bond_atom_site_label_2 
_geom_bond_distance 
_geom_bond_site_symmetry_2 
_ccdc_geom_bond_type 
O1            C4   1.267       .  A
O1           Cd6   2.457       .  S
C2           O11   1.265       .  A
C2            O7   1.266       .  A
C2          C810   1.437       .  S
O3            C9   1.270       .  A
O3           Cd6   2.504       .  S
C4           O12   1.264       .  A
C4          C811   1.432       .  S
C5           O10   1.267       .  A
C5            O8   1.263       .  A
C5          C815   1.435       .  S
Cd6          O13   2.390       .  S
Cd6          O12   2.447       .  S
Cd6          O11   2.468       .  S
Cd6           O7   2.457       .  S
Cd6          O10   2.468       .  S
Cd6           O8   2.444       .  S
C9           O13   1.261       .  A
C9          C813   1.431       .  S
O14          C17   1.266       .  A
O14         Cd19   2.458       .  S
C15          O24   1.264       .  A
C15          O20   1.267       .  A
C15         C806   1.432       .  S
O16          C22   1.267       .  A
O16         Cd19   2.466       .  S
C17          O25   1.265       .  A
C17         C804   1.437       .  S
C18          O23   1.270       .  A
C18          O21   1.261       .  A
C18         C807   1.431       .  S
Cd19         O26   2.445       .  S
Cd19         O25   2.470       .  S
Cd19         O24   2.444       .  S
Cd19         O20   2.458       .  S
Cd19         O23   2.502       .  S
Cd19         O21   2.390       .  S
C22          O26   1.263       .  A
C22         C816   1.434       .  S
O27          C30   1.267       .  A
O27         Cd32   2.459       .  S
C28          O37   1.265       .  A
C28          O33   1.266       .  A
C28         C795   1.436       .  S
O29          C35   1.270       .  A
O29         Cd32   2.500       .  S
C30          O38   1.264       .  A
C30         C798   1.432       .  S
C31          O36   1.267       .  A
C31          O34   1.263       .  A
C31         C801   1.432   1_556  S
Cd32         O39   2.392       .  S
Cd32         O38   2.446       .  S
Cd32         O37   2.466       .  S
Cd32         O33   2.455       .  S
Cd32         O36   2.461       .  S
Cd32         O34   2.441       .  S
C35          O39   1.261       .  A
C35         C799   1.431       .  S
O40          C43   1.267       .  A
O40         Cd45   2.462       .  S
C41          O50   1.264       .  A
C41          O46   1.266       .  A
C41         C791   1.436       .  S
O42          C48   1.270       .  A
O42         Cd45   2.500       .  S
C43          O51   1.264       .  A
C43         C814   1.433       .  S
C44          O49   1.267       .  A
C44          O47   1.263       .  A
C44         C802   1.433       .  S
Cd45         O52   2.393       .  S
Cd45         O51   2.446       .  S
Cd45         O50   2.464       .  S
Cd45         O46   2.455       .  S
Cd45         O49   2.459       .  S
Cd45         O47   2.444       .  S
C48          O52   1.261       .  A
C48         C793   1.431       .  S
O53          C56   1.266       .  A
O53         Cd58   2.456       .  S
C54          O63   1.264       .  A
C54          O59   1.268       .  A
C54         C785   1.432       .  S
O55          C61   1.267       .  A
O55         Cd58   2.462       .  S
C56          O64   1.264       .  A
C56         C783   1.436       .  S
C57          O62   1.270       .  A
C57          O60   1.261       .  A
C57         C787   1.431       .  S
Cd58         O65   2.443       .  S
Cd58         O64   2.466       .  S
Cd58         O63   2.446       .  S
Cd58         O59   2.460       .  S
Cd58         O62   2.500       .  S
Cd58         O60   2.391       .  S
C61          O65   1.263       .  A
C61         C789   1.433       .  S
O66          C69   1.266       .  A
O66         Cd71   2.456       .  S
C67          O76   1.264       .  A
C67          O72   1.267       .  A
C67         C781   1.431       .  S
O68          C74   1.267       .  A
O68         Cd71   2.463       .  S
C69          O77   1.265       .  A
C69         C779   1.437       .  S
C70          O75   1.270       .  A
C70          O73   1.261       .  A
C70         C797   1.430       .  S
Cd71         O78   2.441       .  S
Cd71         O77   2.469       .  S
Cd71         O76   2.445       .  S
Cd71         O72   2.456       .  S
Cd71         O75   2.502       .  S
Cd71         O73   2.390       .  S
C74          O78   1.263       .  A
C74         C790   1.433   1_455  S
O79          C82   1.267       .  A
O79         Cd84   2.461       .  S
C80          O89   1.264       .  A
C80          O85   1.267       .  A
C80         C772   1.436       .  S
O81          C87   1.270       .  A
O81         Cd84   2.499       .  S
C82          O90   1.263       .  A
C82         C773   1.432       .  S
C83          O88   1.267       .  A
C83          O86   1.263       .  A
C83         C777   1.431   1_545  S
Cd84         O91   2.392       .  S
Cd84         O90   2.447       .  S
Cd84         O89   2.463       .  S
Cd84         O85   2.455       .  S
Cd84         O88   2.455       .  S
Cd84         O86   2.441       .  S
C87          O91   1.261       .  A
C87         C775   1.431       .  S
O92          C95   1.267       .  A
O92         Cd97   2.462       .  S
C93         O102   1.264       .  A
C93          O98   1.266       .  A
C93         C769   1.436       .  S
O94         C100   1.269       .  A
O94         Cd97   2.497       .  S
C95         O103   1.263       .  A
C95         C800   1.432       .  S
C96         O101   1.266       .  A
C96          O99   1.263       .  A
C96         C778   1.431       .  S
Cd97        O104   2.392       .  S
Cd97        O103   2.445       .  S
Cd97        O102   2.464       .  S
Cd97         O98   2.454       .  S
Cd97        O101   2.455       .  S
Cd97         O99   2.441       .  S
C100        O104   1.261       .  A
C100        C782   1.430       .  S
O105        C108   1.266       .  A
O105       Cd110   2.454       .  S
C106        O115   1.263       .  A
C106        O111   1.267       .  A
C106        C808   1.432       .  S
O107        C113   1.267       .  A
O107       Cd110   2.459       .  S
C108        O116   1.264       .  A
C108        C764   1.436       .  S
C109        O114   1.270       .  A
C109        O112   1.261       .  A
C109        C765   1.431       .  S
Cd110       O117   2.444       .  S
Cd110       O116   2.465       .  S
Cd110       O115   2.444       .  S
Cd110       O111   2.462       .  S
Cd110       O114   2.499       .  S
Cd110       O112   2.393       .  S
C113        O117   1.264       .  A
C113        C767   1.433   1_455  S
O118        C121   1.267       .  A
O118       Cd123   2.459       .  S
C119        O128   1.265       .  A
C119        O124   1.266       .  A
C119        C757   1.437       .  S
O120        C126   1.270       .  A
O120       Cd123   2.501       .  S
C121        O129   1.264       .  A
C121        C759   1.433       .  S
C122        O127   1.267       .  A
C122        O125   1.263       .  A
C122        C768   1.433       .  S
Cd123       O130   2.390       .  S
Cd123       O129   2.448       .  S
Cd123       O128   2.466       .  S
Cd123       O124   2.456       .  S
Cd123       O127   2.461       .  S
Cd123       O125   2.442       .  S
C126        O130   1.261       .  A
C126        C761   1.431       .  S
O131        C134   1.267       .  A
O131       Cd136   2.462       .  S
C132        O141   1.264       .  A
C132        O137   1.266       .  A
C132        C749   1.436       .  S
O133        C139   1.270       .  A
O133       Cd136   2.498       .  S
C134        O142   1.263       .  A
C134        C751   1.432       .  S
C135        O140   1.267       .  A
C135        O138   1.263       .  A
C135        C756   1.431       .  S
Cd136       O143   2.392       .  S
Cd136       O142   2.444       .  S
Cd136       O141   2.465       .  S
Cd136       O137   2.454       .  S
Cd136       O140   2.457       .  S
Cd136       O138   2.441       .  S
C139        O143   1.261       .  A
C139        C754   1.430       .  S
O144        C147   1.267       .  A
O144       Cd149   2.460       .  S
C145        O154   1.264       .  A
C145        O150   1.267       .  A
C145        C745   1.436       .  S
O146        C152   1.270       .  A
O146       Cd149   2.500       .  S
C147        O155   1.264       .  A
C147        C762   1.432       .  S
C148        O153   1.267       .  A
C148        O151   1.263       .  A
C148        C755   1.432       .  S
Cd149       O156   2.391       .  S
Cd149       O155   2.446       .  S
Cd149       O154   2.464       .  S
Cd149       O150   2.455       .  S
Cd149       O153   2.457       .  S
Cd149       O151   2.440       .  S
C152        O156   1.261       .  A
C152        C748   1.431       .  S
O157        C160   1.266       .  A
O157       Cd162   2.458       .  S
C158        O167   1.264       .  A
C158        O163   1.267       .  A
C158        C776   1.432       .  S
O159        C165   1.267       .  A
O159       Cd162   2.464       .  S
C160        O168   1.265       .  A
C160        C739   1.437       .  S
C161        O166   1.270       .  A
C161        O164   1.261       .  A
C161        C741   1.431       .  S
Cd162       O169   2.442       .  S
Cd162       O168   2.467       .  S
Cd162       O167   2.448       .  S
Cd162       O163   2.457       .  S
Cd162       O166   2.502       .  S
Cd162       O164   2.389       .  S
C165        O169   1.263       .  A
C165        C743   1.433   1_556  S
O170        C173   1.267       .  A
O170       Cd175   2.461       .  S
C171        O180   1.264       .  A
C171        O176   1.266       .  A
C171        C737   1.437       .  S
O172        C178   1.269       .  A
O172       Cd175   2.499       .  S
C173        O181   1.263       .  A
C173        C766   1.432       .  S
C174        O179   1.266       .  A
C174        O177   1.263       .  A
C174        C744   1.433       .  S
Cd175       O182   2.392       .  S
Cd175       O181   2.444       .  S
Cd175       O180   2.469       .  S
Cd175       O176   2.457       .  S
Cd175       O179   2.462       .  S
Cd175       O177   2.446       .  S
C178        O182   1.261       .  A
C178        C805   1.430       .  S
O183        C186   1.267       .  A
O183       Cd188   2.460       .  S
C184        O193   1.265       .  A
C184        O189   1.266       .  A
C184        C729   1.436       .  S
O185        C191   1.270       .  A
O185       Cd188   2.500       .  S
C186        O194   1.263       .  A
C186        C731   1.432       .  S
C187        O192   1.267       .  A
C187        O190   1.263       .  A
C187        C735   1.432       .  S
Cd188       O195   2.392       .  S
Cd188       O194   2.443       .  S
Cd188       O193   2.465       .  S
Cd188       O189   2.453       .  S
Cd188       O192   2.459       .  S
Cd188       O190   2.442       .  S
C191        O195   1.261       .  A
C191        C733   1.431       .  S
O196        C199   1.268       .  A
O196       Cd201   2.459       .  S
C197        O206   1.265       .  A
C197        O202   1.266       .  A
C197        C727   1.437       .  S
O198        C204   1.270       .  A
O198       Cd201   2.501       .  S
C199        O207   1.264       .  A
C199        C742   1.433       .  S
C200        O205   1.267       .  A
C200        O203   1.263       .  A
C200        C736   1.433   1_455  S
Cd201       O208   2.389       .  S
Cd201       O207   2.447       .  S
Cd201       O206   2.465       .  S
Cd201       O202   2.456       .  S
Cd201       O205   2.461       .  S
Cd201       O203   2.441       .  S
C204        O208   1.261       .  A
C204        C774   1.431       .  S
O209        C212   1.267       .  A
O209       Cd214   2.458       .  S
C210        O219   1.265       .  A
C210        O215   1.266       .  A
C210        C723   1.437       .  S
O211        C217   1.270       .  A
O211       Cd214   2.502       .  S
C212        O220   1.264       .  A
C212        C747   1.432       .  S
C213        O218   1.267       .  A
C213        O216   1.263       .  A
C213        C726   1.433       .  S
Cd214       O221   2.390       .  S
Cd214       O220   2.448       .  S
Cd214       O219   2.468       .  S
Cd214       O215   2.458       .  S
Cd214       O218   2.464       .  S
Cd214       O216   2.443       .  S
C217        O221   1.261       .  A
C217        C760   1.431       .  S
O222        C225   1.267       .  A
O222       Cd227   2.460       .  S
C223        O232   1.264       .  A
C223        O228   1.266       .  A
C223        C719   1.437       .  S
O224        C230   1.270       .  A
O224       Cd227   2.500       .  S
C225        O233   1.264       .  A
C225        C734   1.432       .  S
C226        O231   1.267       .  A
C226        O229   1.263       .  A
C226        C725   1.433   1_556  S
Cd227       O234   2.392       .  S
Cd227       O233   2.445       .  S
Cd227       O232   2.468       .  S
Cd227       O228   2.457       .  S
Cd227       O231   2.462       .  S
Cd227       O229   2.446       .  S
C230        O234   1.261       .  A
C230        C722   1.430       .  S
O235        C238   1.267       .  A
O235       Cd240   2.459       .  S
C236        O245   1.265       .  A
C236        O241   1.266       .  A
C236        C713   1.438       .  S
O237        C243   1.270       .  A
O237       Cd240   2.503       .  S
C238        O246   1.264       .  A
C238        C788   1.432       .  S
C239        O244   1.267       .  A
C239        O242   1.263       .  A
C239        C717   1.434       .  S
Cd240       O247   2.391       .  S
Cd240       O246   2.448       .  S
Cd240       O245   2.470       .  S
Cd240       O241   2.458       .  S
Cd240       O244   2.466       .  S
Cd240       O242   2.446       .  S
C243        O247   1.261       .  A
C243        C716   1.431       .  S
O248        C251   1.267       .  A
O248       Cd253   2.459       .  S
C249        O258   1.265       .  A
C249        O254   1.266       .  A
C249        C711   1.438       .  S
O250        C256   1.270       .  A
O250       Cd253   2.501       .  S
C251        O259   1.264       .  A
C251        C721   1.432       .  S
C252        O257   1.267       .  A
C252        O255   1.263       .  A
C252        C718   1.434       .  S
Cd253       O260   2.390       .  S
Cd253       O259   2.445       .  S
Cd253       O258   2.469       .  S
Cd253       O254   2.459       .  S
Cd253       O257   2.466       .  S
Cd253       O255   2.445       .  S
C256        O260   1.261       .  A
C256        C732   1.430       .  S
O261        C264   1.266       .  A
O261       Cd266   2.457       .  S
C262        O271   1.264       .  A
C262        O267   1.267       .  A
C262        C794   1.433       .  S
O263        C269   1.267       .  A
O263       Cd266   2.462       .  S
C264        O272   1.264       .  A
C264        C707   1.436       .  S
C265        O270   1.270       .  A
C265        O268   1.261       .  A
C265        C812   1.431       .  S
Cd266       O273   2.444       .  S
Cd266       O272   2.466       .  S
Cd266       O271   2.447       .  S
Cd266       O267   2.460       .  S
Cd266       O270   2.501       .  S
Cd266       O268   2.391       .  S
C269        O273   1.263       .  A
C269        C709   1.433   1_455  S
O274        C277   1.267       .  A
O274       Cd279   2.459       .  S
C275        O284   1.265       .  A
C275        O280   1.266       .  A
C275        C703   1.437       .  S
O276        C282   1.270       .  A
O276       Cd279   2.500       .  S
C277        O285   1.264       .  A
C277        C753   1.432       .  S
C278        O283   1.267       .  A
C278        O281   1.263       .  A
C278        C710   1.433       .  S
Cd279       O286   2.391       .  S
Cd279       O285   2.446       .  S
Cd279       O284   2.469       .  S
Cd279       O280   2.458       .  S
Cd279       O283   2.463       .  S
Cd279       O281   2.444       .  S
C282        O286   1.261       .  A
C282        C705   1.430       .  S
O287        C290   1.267       .  A
O287       Cd292   2.459       .  S
C288        O297   1.265       .  A
C288        O293   1.266       .  A
C288        C700   1.436       .  S
O289        C295   1.270       .  A
O289       Cd292   2.499       .  S
C290        O298   1.264       .  A
C290        C706   1.432       .  S
C291        O296   1.267       .  A
C291        O294   1.263       .  A
C291        C701   1.433       .  S
Cd292       O299   2.392       .  S
Cd292       O298   2.444       .  S
Cd292       O297   2.466       .  S
Cd292       O293   2.455       .  S
Cd292       O296   2.460       .  S
Cd292       O294   2.442       .  S
C295        O299   1.261       .  A
C295        C752   1.431       .  S
O300        C303   1.268       .  A
O300       Cd305   2.460       .  S
C301        O310   1.265       .  A
C301        O306   1.266       .  A
C301        C697   1.436       .  S
O302        C308   1.270       .  A
O302       Cd305   2.501       .  S
C303        O311   1.264       .  A
C303        C715   1.433       .  S
C304        O309   1.267       .  A
C304        O307   1.263       .  A
C304        C702   1.433   1_556  S
Cd305       O312   2.391       .  S
Cd305       O311   2.446       .  S
Cd305       O310   2.464       .  S
Cd305       O306   2.454       .  S
Cd305       O309   2.460       .  S
Cd305       O307   2.442       .  S
C308        O312   1.261       .  A
C308        C786   1.431       .  S
O313        C316   1.267       .  A
O313       Cd318   2.461       .  S
C314        O323   1.264       .  A
C314        O319   1.266       .  A
C314        C728   1.437       .  S
O315        C321   1.270       .  A
O315       Cd318   2.500       .  S
C316        O324   1.263       .  A
C316        C692   1.432       .  S
C317        O322   1.267       .  A
C317        O320   1.264       .  A
C317        C695   1.434       .  S
Cd318       O325   2.393       .  S
Cd318       O324   2.444       .  S
Cd318       O323   2.467       .  S
Cd318       O319   2.457       .  S
Cd318       O322   2.462       .  S
Cd318       O320   2.447       .  S
C321        O325   1.261       .  A
C321        C694   1.431       .  S
O326        C329   1.267       .  A
O326       Cd331   2.457       .  S
C327        O336   1.265       .  A
C327        O332   1.266       .  A
C327        C803   1.438       .  S
O328        C334   1.270       .  A
O328       Cd331   2.503       .  S
C329        O337   1.264       .  A
C329        C688   1.432       .  S
C330        O335   1.267       .  A
C330        O333   1.263       .  A
C330        C696   1.434       .  S
Cd331       O338   2.390       .  S
Cd331       O337   2.448       .  S
Cd331       O336   2.468       .  S
Cd331       O332   2.459       .  S
Cd331       O335   2.465       .  S
Cd331       O333   2.443       .  S
C334        O338   1.261       .  A
C334        C690   1.431       .  S
O339        C342   1.266       .  A
O339       Cd344   2.457       .  S
C340        O349   1.264       .  A
C340        O345   1.267       .  A
C340        C681   1.433       .  S
O341        C347   1.268       .  A
O341       Cd344   2.469       .  S
C342        O350   1.265       .  A
C342        C780   1.437       .  S
C343        O348   1.270       .  A
C343        O346   1.261       .  A
C343        C684   1.431       .  S
Cd344       O351   2.444       .  S
Cd344       O350   2.469       .  S
Cd344       O349   2.449       .  S
Cd344       O345   2.457       .  S
Cd344       O348   2.505       .  S
Cd344       O346   2.390       .  S
C347        O351   1.263       .  A
C347        C685   1.435       .  S
O352        C355   1.268       .  A
O352       Cd357   2.459       .  S
C353        O362   1.265       .  A
C353        O358   1.266       .  A
C353        C740   1.437       .  S
O354        C360   1.270       .  A
O354       Cd357   2.503       .  S
C355        O363   1.264       .  A
C355        C693   1.432       .  S
C356        O361   1.267       .  A
C356        O359   1.263       .  A
C356        C686   1.435       .  S
Cd357       O364   2.390       .  S
Cd357       O363   2.444       .  S
Cd357       O362   2.469       .  S
Cd357       O358   2.457       .  S
Cd357       O361   2.467       .  S
Cd357       O359   2.446       .  S
C360        O364   1.261       .  A
C360        C679   1.431       .  S
O365        C368   1.268       .  A
O365       Cd370   2.462       .  S
C366        O375   1.264       .  A
C366        O371   1.266       .  A
C366        C746   1.436       .  S
O367        C373   1.270       .  A
O367       Cd370   2.499       .  S
C368        O376   1.263       .  A
C368        C674   1.432       .  S
C369        O374   1.267       .  A
C369        O372   1.264       .  A
C369        C677   1.433       .  S
Cd370       O377   2.394       .  S
Cd370       O376   2.443       .  S
Cd370       O375   2.465       .  S
Cd370       O371   2.455       .  S
Cd370       O374   2.460       .  S
Cd370       O372   2.444       .  S
C373        O377   1.261       .  A
C373        C675   1.431       .  S
O378        C381   1.267       .  A
O378       Cd383   2.458       .  S
C379        O388   1.265       .  A
C379        O384   1.266       .  A
C379        C738   1.437       .  S
O380        C386   1.270       .  A
O380       Cd383   2.502       .  S
C381        O389   1.264       .  A
C381        C689   1.433       .  S
C382        O387   1.267       .  A
C382        O385   1.263       .  A
C382        C678   1.433       .  S
Cd383       O390   2.390       .  S
Cd383       O389   2.449       .  S
Cd383       O388   2.467       .  S
Cd383       O384   2.457       .  S
Cd383       O387   2.463       .  S
Cd383       O385   2.442       .  S
C386        O390   1.261       .  A
C386        C672   1.431       .  S
O391        C394   1.266       .  A
O391       Cd396   2.459       .  S
C392        O401   1.264       .  A
C392        O397   1.267       .  A
C392        C666   1.433       .  S
O393        C399   1.267       .  A
O393       Cd396   2.466       .  S
C394        O402   1.265       .  A
C394        C712   1.438       .  S
C395        O400   1.270       .  A
C395        O398   1.261       .  A
C395        C667   1.431       .  S
Cd396       O403   2.445       .  S
Cd396       O402   2.469       .  S
Cd396       O401   2.449       .  S
Cd396       O397   2.457       .  S
Cd396       O400   2.504       .  S
Cd396       O398   2.390       .  S
C399        O403   1.263       .  A
C399        C669   1.434       .  S
O404        C407   1.267       .  A
O404       Cd409   2.461       .  S
C405        O414   1.264       .  A
C405        O410   1.266       .  A
C405        C758   1.437       .  S
O406        C412   1.270       .  A
O406       Cd409   2.500       .  S
C407        O415   1.263       .  A
C407        C676   1.432       .  S
C408        O413   1.267       .  A
C408        O411   1.264       .  A
C408        C670   1.434       .  S
Cd409       O416   2.393       .  S
Cd409       O415   2.444       .  S
Cd409       O414   2.468       .  S
Cd409       O410   2.457       .  S
Cd409       O413   2.463       .  S
Cd409       O411   2.448       .  S
C412        O416   1.261       .  A
C412        C663   1.431       .  S
O417        C420   1.266       .  A
O417       Cd422   2.455       .  S
C418        O427   1.264       .  A
C418        O423   1.267       .  A
C418        C683   1.433       .  S
O419        C425   1.267       .  A
O419       Cd422   2.460       .  S
C420        O428   1.264       .  A
C420        C770   1.436       .  S
C421        O426   1.270       .  A
C421        O424   1.261       .  A
C421        C660   1.431       .  S
Cd422       O429   2.444       .  S
Cd422       O428   2.464       .  S
Cd422       O427   2.447       .  S
Cd422       O423   2.462       .  S
Cd422       O426   2.500       .  S
Cd422       O424   2.394       .  S
C425        O429   1.263       .  A
C425        C661   1.433       .  S
O430        C433   1.267       .  A
O430       Cd435   2.459       .  S
C431        O440   1.265       .  A
C431        O436   1.266       .  A
C431        C708   1.436       .  S
O432        C438   1.270       .  A
O432       Cd435   2.500       .  S
C433        O441   1.264       .  A
C433        C655   1.432       .  S
C434        O439   1.267       .  A
C434        O437   1.263       .  A
C434        C662   1.432       .  S
Cd435       O442   2.391       .  S
Cd435       O441   2.446       .  S
Cd435       O440   2.465       .  S
Cd435       O436   2.455       .  S
Cd435       O439   2.460       .  S
Cd435       O437   2.442       .  S
C438        O442   1.261       .  A
C438        C657   1.431       .  S
O443        C446   1.266       .  A
O443       Cd448   2.457       .  S
C444        O453   1.264       .  A
C444        O449   1.267       .  A
C444        C668   1.433       .  S
O445        C451   1.267       .  A
O445       Cd448   2.462       .  S
C446        O454   1.265       .  A
C446        C720   1.437       .  S
C447        O452   1.270       .  A
C447        O450   1.261       .  A
C447        C651   1.431       .  S
Cd448       O455   2.442       .  S
Cd448       O454   2.466       .  S
Cd448       O453   2.450       .  S
Cd448       O449   2.459       .  S
Cd448       O452   2.502       .  S
Cd448       O450   2.390       .  S
C451        O455   1.263       .  A
C451        C654   1.433       .  S
O456        C459   1.266       .  A
O456       Cd461   2.454       .  S
C457        O466   1.263       .  A
C457        O462   1.267       .  A
C457        C680   1.432       .  S
O458        C464   1.267       .  A
O458       Cd461   2.459       .  S
C459        O467   1.264       .  A
C459        C771   1.436       .  S
C460        O465   1.270       .  A
C460        O463   1.261       .  A
C460        C691   1.431       .  S
Cd461       O468   2.444       .  S
Cd461       O467   2.465       .  S
Cd461       O466   2.444       .  S
Cd461       O462   2.462       .  S
Cd461       O465   2.499       .  S
Cd461       O463   2.394       .  S
C464        O468   1.264       .  A
C464        C653   1.433       .  S
O469        C472   1.267       .  A
O469       Cd474   2.462       .  S
C470        O479   1.264       .  A
C470        O475   1.266       .  A
C470        C698   1.436       .  S
O471        C477   1.269       .  A
O471       Cd474   2.497       .  S
C472        O480   1.263       .  A
C472        C645   1.432       .  S
C473        O478   1.267       .  A
C473        O476   1.264       .  A
C473        C650   1.431       .  S
Cd474       O481   2.394       .  S
Cd474       O480   2.444       .  S
Cd474       O479   2.464       .  S
Cd474       O475   2.456       .  S
Cd474       O478   2.456       .  S
Cd474       O476   2.442       .  S
C477        O481   1.261       .  A
C477        C647   1.430       .  S
O482        C485   1.266       .  A
O482       Cd487   2.455       .  S
C483        O492   1.264       .  A
C483        O488   1.267       .  A
C483        C652   1.432       .  S
O484        C490   1.267       .  A
O484       Cd487   2.457       .  S
C485        O493   1.264       .  A
C485        C730   1.436       .  S
C486        O491   1.270       .  A
C486        O489   1.261       .  A
C486        C665   1.431       .  S
Cd487       O494   2.440       .  S
Cd487       O493   2.463       .  S
Cd487       O492   2.447       .  S
Cd487       O488   2.459       .  S
Cd487       O491   2.500       .  S
Cd487       O489   2.393       .  S
C490        O494   1.263       .  A
C490        C649   1.431       .  S
O495        C498   1.267       .  A
O495       Cd500   2.458       .  S
C496        O505   1.265       .  A
C496        O501   1.266       .  A
C496        C714   1.437       .  S
O497        C503   1.270       .  A
O497       Cd500   2.501       .  S
C498        O506   1.264       .  A
C498        C648   1.432       .  S
C499        O504   1.267       .  A
C499        O502   1.263       .  A
C499        C643   1.433       .  S
Cd500       O507   2.391       .  S
Cd500       O506   2.445       .  S
Cd500       O505   2.470       .  S
Cd500       O501   2.458       .  S
Cd500       O504   2.464       .  S
Cd500       O502   2.445       .  S
C503        O507   1.261       .  A
C503        C642   1.430       .  S
O508        C511   1.267       .  A
O508       Cd513   2.460       .  S
C509        O518   1.264       .  A
C509        O514   1.266       .  A
C509        C796   1.436       .  S
O510        C516   1.270       .  A
O510       Cd513   2.502       .  S
C511        O519   1.264       .  A
C511        C659   1.433       .  S
C512        O517   1.267       .  A
C512        O515   1.263       .  A
C512        C644   1.434       .  S
Cd513       O520   2.393       .  S
Cd513       O519   2.447       .  S
Cd513       O518   2.466       .  S
Cd513       O514   2.457       .  S
Cd513       O517   2.465       .  S
Cd513       O515   2.445       .  S
C516        O520   1.261       .  A
C516        C682   1.431       .  S
O521        C524   1.267       .  A
O521       Cd526   2.458       .  S
C522        O531   1.265       .  A
C522        O527   1.266       .  A
C522        C704   1.437       .  S
O523        C529   1.270       .  A
O523       Cd526   2.504       .  S
C524        O532   1.264       .  A
C524        C636   1.433       .  S
C525        O530   1.267       .  A
C525        O528   1.263       .  A
C525        C639   1.435       .  S
Cd526       O533   2.390       .  S
Cd526       O532   2.448       .  S
Cd526       O531   2.469       .  S
Cd526       O527   2.457       .  S
Cd526       O530   2.468       .  S
Cd526       O528   2.444       .  S
C529        O533   1.261       .  A
C529        C638   1.431       .  S
O534        C537   1.267       .  A
O534       Cd539   2.459       .  S
C535        O544   1.265       .  A
C535        O540   1.266       .  A
C535        C724   1.437       .  S
O536        C542   1.270       .  A
O536       Cd539   2.502       .  S
C537        O545   1.264       .  A
C537        C664   1.432       .  S
C538        O543   1.267       .  A
C538        O541   1.263       .  A
C538        C640   1.434       .  S
Cd539       O546   2.390       .  S
Cd539       O545   2.445       .  S
Cd539       O544   2.469       .  S
Cd539       O540   2.458       .  S
Cd539       O543   2.467       .  S
Cd539       O541   2.446       .  S
C542        O546   1.261       .  A
C542        C673   1.431       .  S
O547        C550   1.267       .  A
O547       Cd552   2.458       .  S
C548        O557   1.265       .  A
C548        O553   1.266       .  A
C548        C784   1.436       .  S
O549        C555   1.270       .  A
O549       Cd552   2.501       .  S
C550        O558   1.264       .  A
C550        C641   1.432       .  S
C551        O556   1.267       .  A
C551        O554   1.263       .  A
C551        C634   1.433       .  S
Cd552       O559   2.390       .  S
Cd552       O558   2.445       .  S
Cd552       O557   2.465       .  S
Cd552       O553   2.455       .  S
Cd552       O556   2.461       .  S
Cd552       O554   2.441       .  S
C555        O559   1.261       .  A
C555        C646   1.431       .  S
O560        C563   1.267       .  A
O560       Cd565   2.461       .  S
C561        O570   1.264       .  A
C561        O566   1.266       .  A
C561        C750   1.436       .  S
O562        C568   1.270       .  A
O562       Cd565   2.500       .  S
C563        O571   1.264       .  A
C563        C637   1.433       .  S
C564        O569   1.267       .  A
C564        O567   1.263       .  A
C564        C633   1.433       .  S
Cd565       O572   2.393       .  S
Cd565       O571   2.447       .  S
Cd565       O570   2.464       .  S
Cd565       O566   2.454       .  S
Cd565       O569   2.460       .  S
Cd565       O567   2.442       .  S
C568        O572   1.261       .  A
C568        C632   1.431       .  S
O573        C576   1.267       .  A
O573       Cd578   2.461       .  S
C574        O583   1.264       .  A
C574        O579   1.266       .  A
C574        C792   1.436       .  S
O575        C581   1.269       .  A
O575       Cd578   2.497       .  S
C576        O584   1.263       .  A
C576        C658   1.432       .  S
C577        O582   1.267       .  A
C577        O580   1.263       .  A
C577        C629   1.431       .  S
Cd578       O585   2.393       .  S
Cd578       O584   2.444       .  S
Cd578       O583   2.464       .  S
Cd578       O579   2.455       .  S
Cd578       O582   2.456       .  S
Cd578       O580   2.442       .  S
C581        O585   1.261       .  A
C581        C627   1.430       .  S
O586        C589   1.267       .  A
O586       Cd591   2.459       .  S
C587        O596   1.264       .  A
C587        O592   1.266       .  A
C587        C763   1.436       .  S
O588        C594   1.270       .  A
O588       Cd591   2.500       .  S
C589        O597   1.264       .  A
C589        C671   1.432       .  S
C590        O595   1.267       .  A
C590        O593   1.263       .  A
C590        C630   1.431       .  S
Cd591       O598   2.392       .  S
Cd591       O597   2.448       .  S
Cd591       O596   2.464       .  S
Cd591       O592   2.455       .  S
Cd591       O595   2.457       .  S
Cd591       O593   2.441       .  S
C594        O598   1.261       .  A
C594        C687   1.431       .  S
O599        C602   1.266       .  A
O599       Cd604   2.457       .  S
C600        O609   1.264       .  A
C600        O605   1.267       .  A
C600        C631   1.433       .  S
O601        C607   1.267       .  A
O601       Cd604   2.463       .  S
C602        O610   1.264       .  A
C602        C699   1.437       .  S
C603        O608   1.270       .  A
C603        O606   1.261       .  A
C603        C635   1.431       .  S
Cd604       O611   2.445       .  S
Cd604       O610   2.466       .  S
Cd604       O609   2.446       .  S
Cd604       O605   2.461       .  S
Cd604       O608   2.501       .  S
Cd604       O606   2.393       .  S
C607        O611   1.263       .  A
C607        C625   1.433       .  S
O612        C615   1.266       .  A
O612       Cd617   2.458       .  S
C613        O622   1.264       .  A
C613        O618   1.267       .  A
C613        C628   1.432       .  S
O614        C620   1.267       .  A
O614       Cd617   2.464       .  S
C615        O623   1.265       .  A
C615        C809   1.437       .  S
C616        O621   1.270       .  A
C616        O619   1.261       .  A
C616        C656   1.430       .  S
Cd617       O624   2.443       .  S
Cd617       O623   2.468       .  S
Cd617       O622   2.446       .  S
Cd617       O618   2.457       .  S
Cd617       O621   2.501       .  S
Cd617       O619   2.390       .  S
C620        O624   1.263       .  A
C620        C626   1.433       .  S
C625        C626   1.205       .  T
C627        C628   1.203       .  T
C629        C630   1.204       .  T
C631        C632   1.204       .  T
C633        C634   1.204       .  T
C635        C636   1.204       .  T
C637        C638   1.204       .  T
C639        C640   1.206       .  T
C641        C642   1.204       .  T
C643        C644   1.205       .  T
C645        C646   1.204       .  T
C647        C648   1.203       .  T
C649        C650   1.204       .  T
C651        C652   1.204       .  T
C653        C654   1.204       .  T
C655        C656   1.204       .  T
C657        C658   1.204       .  T
C659        C660   1.204       .  T
C661        C662   1.204       .  T
C663        C664   1.204       .  T
C665        C666   1.204       .  T
C667        C668   1.204       .  T
C669        C670   1.205       .  T
C671        C672   1.204       .  T
C673        C674   1.204       .  T
C675        C676   1.204       .  T
C677        C678   1.205       .  T
C679        C680   1.204       .  T
C681        C682   1.204       .  T
C683        C684   1.204       .  T
C685        C686   1.206       .  T
C687        C688   1.204       .  T
C689        C690   1.204       .  T
C691        C692   1.204       .  T
C693        C694   1.204       .  T
C695        C696   1.205       .  T
C697        C698   1.207       .  T
C699        C700   1.207       .  T
C701        C702   1.204       .  T
C703        C704   1.207       .  T
C705        C706   1.203       .  T
C707        C708   1.207       .  T
C709        C710   1.205       .  T
C711        C712   1.208       .  T
C713        C714   1.207       .  T
C715        C716   1.204       .  T
C717        C718   1.205   1_565  T
C719        C720   1.207       .  T
C721        C722   1.204       .  T
C723        C724   1.207       .  T
C725        C726   1.205       .  T
C727        C728   1.207       .  T
C729        C730   1.206       .  T
C731        C732   1.204       .  T
C733        C734   1.204       .  T
C735        C736   1.204       .  T
C737        C738   1.207       .  T
C739        C740   1.207       .  T
C741        C742   1.204       .  T
C743        C744   1.205       .  T
C745        C746   1.207       .  T
C747        C748   1.204       .  T
C749        C750   1.206       .  T
C751        C752   1.204       .  T
C753        C754   1.204       .  T
C755        C756   1.204   1_545  T
C757        C758   1.207       .  T
C759        C760   1.204       .  T
C761        C762   1.204       .  T
C763        C764   1.207       .  T
C765        C766   1.204       .  T
C767        C768   1.204       .  T
C769        C770   1.206       .  T
C771        C772   1.206       .  T
C773        C774   1.204       .  T
C775        C776   1.204       .  T
C777        C778   1.203       .  T
C779        C780   1.207       .  T
C781        C782   1.203       .  T
C783        C784   1.207       .  T
C785        C786   1.204       .  T
C787        C788   1.204       .  T
C789        C790   1.205       .  T
C791        C792   1.207       .  T
C793        C794   1.204       .  T
C795        C796   1.207       .  T
C797        C798   1.204       .  T
C799        C800   1.204       .  T
C801        C802   1.204       .  T
C803        C804   1.207       .  T
C805        C806   1.203       .  T
C807        C808   1.204       .  T
C809        C810   1.207       .  T
C811        C812   1.204       .  T
C813        C814   1.204       .  T
C815        C816   1.205   1_565  T
