geometry optimzed in LAMMPS
_audit_creation_date              2020-12-01 
_audit_creation_method            'lammps2cif' 
_symmetry_space_group_name_H-M    'P1' 
_symmetry_Int_Tables_number       1 
_symmetry_cell_setting            triclinic 
loop_ 
_symmetry_equiv_pos_as_xyz 
  x,y,z 
_cell_length_a                    51.9816684 
_cell_length_b                    52.0017794200183 
_cell_length_c                    52.084030030277376 
_cell_angle_alpha                 89.96337059590567 
_cell_angle_beta                  90.00868818648499 
_cell_angle_gamma                 89.91113974127798 
loop_ 
_atom_site_label 
_atom_site_type_symbol 
_atom_site_fract_x 
_atom_site_fract_y 
_atom_site_fract_z 
_atom_site_charge 
O1          O  0.76336792  0.52813564  0.72757712    -0.71700
O2          O  0.72544765  0.47655014  0.76255441    -0.71900
O3          O  0.72783206  0.52796801  0.76454549    -0.71700
O4          O  0.76113035  0.47680989  0.72519419    -0.71700
O5          O  0.79224197  0.47551707  0.75294320    -0.71700
O6          O  0.75683887  0.52392606  0.79430652    -0.71700
O7          O  0.75667939  0.47242026  0.79002185    -0.71700
O8          O  0.79250513  0.52673581  0.75729805    -0.71800
V9          V  0.74499779  0.50225169  0.74552680     1.35200
V10         V  0.77397126  0.49967776  0.77312535     1.35200
C11         C  0.78426315  0.53658915  0.73671329     0.77600
C12         C  0.73473655  0.46562732  0.78217298     0.77600
C13         C  0.73658776  0.53462631  0.78614009     0.77500
C14         C  0.78275726  0.46803505  0.73189506     0.77500
O15         O  0.46146583  0.78956399  0.76883487    -0.71700
O16         O  0.40797023  0.82426772  0.73346534    -0.71900
O17         O  0.45931853  0.82550252  0.73236381    -0.71700
O18         O  0.40996890  0.78787856  0.77023385    -0.71700
O19         O  0.40811077  0.81847245  0.79852599    -0.71700
O20         O  0.46070272  0.85419772  0.76248812    -0.71700
O21         O  0.40927174  0.85490755  0.76169447    -0.71700
O22         O  0.45972120  0.81810478  0.79925586    -0.71800
V23         V  0.43458700  0.80733937  0.75182438     1.35200
V24         V  0.43439021  0.83585192  0.77996562     1.35200
C25         C  0.46979971  0.79806097  0.78996184     0.77600
C26         C  0.40036562  0.84613012  0.74092317     0.77600
C27         C  0.46872715  0.84613240  0.74103624     0.77500
C28         C  0.40073039  0.79660055  0.79089847     0.77500
O29         O  0.76499856  0.79148333  0.45847732    -0.71700
O30         O  0.72742930  0.83050693  0.40943094    -0.71900
O31         O  0.76434585  0.79458492  0.40673972    -0.71700
O32         O  0.72800924  0.82739398  0.46092544    -0.71700
O33         O  0.75686164  0.85748877  0.46184339    -0.71700
O34         O  0.79393946  0.82393839  0.40884065    -0.71700
O35         O  0.75695343  0.85991624  0.41031699    -0.71700
O36         O  0.79364730  0.82161094  0.46028376    -0.71800
V37         V  0.74675872  0.81153430  0.43390665     1.35200
V38         V  0.77476620  0.84015966  0.43527099     1.35200
C39         C  0.78557047  0.80014002  0.46818023     0.77600
C40         C  0.73595588  0.85176015  0.40125736     0.77600
C41         C  0.78542002  0.80362533  0.39865460     0.77500
C42         C  0.73641288  0.84794275  0.47079904     0.77500
C43         C  0.27570653  0.95236837  0.23833860     0.80300
N44         N  0.27452564  0.97851015  0.23804510    -0.78000
C45         C  0.25757119  0.99125782  0.25332948     0.82800
N46         N  0.24153869  0.97774950  0.26882985    -0.77900
C47         C  0.24204116  0.95167672  0.26892046     0.82900
N48         N  0.25928288  0.93915310  0.25382910    -0.79600
C49         C  0.24131586  0.05771341  0.27280462     0.80300
N50         N  0.25646567  0.07163286  0.25676194    -0.78000
C51         C  0.27195716  0.05971027  0.23946285     0.82800
N52         N  0.27211003  0.03359899  0.23802409    -0.77900
C53         C  0.25694116  0.01951472  0.25393223     0.82900
N54         N  0.24154484  0.03167946  0.27113972    -0.79600
O55         O  0.41288018  0.21157827  0.10767607    -0.71700
O56         O  0.46264291  0.17175259  0.14288209    -0.71900
O57         O  0.46436701  0.20981355  0.10847877    -0.71700
O58         O  0.41089995  0.17354712  0.14202124    -0.71700
O59         O  0.41044916  0.14548976  0.11112655    -0.71700
O60         O  0.46436736  0.18179818  0.07775630    -0.71700
O61         O  0.46212589  0.14346634  0.11223388    -0.71700
O62         O  0.41279209  0.18387582  0.07648224    -0.71800
V63         V  0.43769955  0.19107734  0.12467636     1.35200
V64         V  0.43740761  0.16416408  0.09498728     1.35200
C65         C  0.40432274  0.20453302  0.08612765     0.77600
C66         C  0.47123586  0.15111390  0.13339262     0.77600
C67         C  0.47358014  0.20213398  0.08741531     0.77500
C68         C  0.40148037  0.15342264  0.13226067     0.77500
C69         C  0.59873671  0.94886059  0.23794030     0.80300
N70         N  0.61384834  0.93556464  0.25463025    -0.78000
C71         C  0.63222259  0.94775807  0.26862214     0.82800
N72         N  0.63513369  0.97361047  0.26600947    -0.77900
C73         C  0.62019668  0.98699080  0.24931300     0.82900
N74         N  0.60218436  0.97452160  0.23528853    -0.79600
C75         C  0.60646361  0.05414993  0.23129495     0.80300
N76         N  0.62427597  0.06708282  0.24528257    -0.78000
C77         C  0.64129199  0.05399614  0.26024090     0.82800
N78         N  0.64008889  0.02790711  0.26128207    -0.77900
C79         C  0.62243507  0.01494656  0.24719381     0.82900
N80         N  0.60554086  0.02815093  0.23237867    -0.79600
O81         O  0.75398655  0.20644381  0.46463422    -0.71700
O82         O  0.72049137  0.17131173  0.41016752    -0.71900
O83         O  0.71715503  0.17003367  0.46166089    -0.71700
O84         O  0.75695025  0.20754647  0.41351200    -0.71700
O85         O  0.78617647  0.17768605  0.41436781    -0.71700
O86         O  0.74663797  0.14048695  0.46306229    -0.71700
O87         O  0.74973781  0.14156604  0.41154342    -0.71700
O88         O  0.78337490  0.17674567  0.46567902    -0.71800
V89         V  0.73765868  0.18821543  0.43757824     1.35200
V90         V  0.76586903  0.15966148  0.43868984     1.35200
C91         C  0.77486902  0.19800132  0.47383241     0.77600
C92         C  0.72960221  0.15059212  0.40130060     0.77600
C93         C  0.72500426  0.14878876  0.47050057     0.77500
C94         C  0.77830071  0.19897473  0.40566387     0.77500
C95         C  0.63400061  0.94202231  0.60547151     0.80300
N96         N  0.61762771  0.92846907  0.62067689    -0.78000
C97         C  0.60044365  0.94068207  0.63603414     0.82800
N98         N  0.59938653  0.96672752  0.63608313    -0.77900
C99         C  0.61566583  0.98051228  0.62115089     0.82900
N100        N  0.63274116  0.96809898  0.60581117    -0.79600
C101        C  0.59611233  0.04702562  0.63702077     0.80300
N102        N  0.60939884  0.06052595  0.61900766    -0.78000
C103        C  0.62467474  0.04825855  0.60174786     0.82800
N104        N  0.62702883  0.02229366  0.60282604    -0.77900
C105        C  0.61398583  0.00863474  0.62076676     0.82900
N106        N  0.59860494  0.02106218  0.63777021    -0.79600
C107        C  0.27985761  0.94554825  0.62722240     0.80300
N108        N  0.27815949  0.97153467  0.62900200    -0.78000
C109        C  0.26217172  0.98475856  0.61313612     0.82800
N110        N  0.24782647  0.97188679  0.59562367    -0.77900
C111        C  0.24943791  0.94593218  0.59373649     0.82900
N112        N  0.26540472  0.93279096  0.60966878    -0.79600
C113        C  0.24459689  0.05198738  0.59826212     0.80300
N114        N  0.26114725  0.06503410  0.61363309    -0.78000
C115        C  0.27732167  0.05217426  0.62963995     0.82800
N116        N  0.27737998  0.02606088  0.62956690    -0.77900
C117        C  0.26121311  0.01288351  0.61397703     0.82900
N118        N  0.24486483  0.02590122  0.59834772    -0.79600
O119        O  0.46105465  0.14085663  0.76455277    -0.71700
O120        O  0.40837917  0.17862837  0.79810657    -0.71900
O121        O  0.40964516  0.14105052  0.76273903    -0.71700
O122        O  0.46000886  0.17831244  0.79977903    -0.71700
O123        O  0.46117759  0.20695079  0.76950454    -0.71700
O124        O  0.41068358  0.16978447  0.73258798    -0.71700
O125        O  0.40954878  0.20734778  0.76794634    -0.71700
O126        O  0.46204401  0.16945448  0.73424119    -0.71800
V127        V  0.43475820  0.16030534  0.78074774     1.35200
V128        V  0.43581542  0.18786364  0.75167776     1.35200
C129        C  0.47048179  0.14863297  0.74359652     0.77600
C130        C  0.40002233  0.19953277  0.78885355     0.77600
C131        C  0.40179564  0.14885229  0.74115314     0.77500
C132        C  0.46955410  0.19872194  0.79076218     0.77500
O133        O  0.07069432  0.17129121  0.41363992    -0.71700
O134        O  0.11144882  0.13513655  0.46251680    -0.71900
O135        O  0.07157221  0.16826722  0.46513388    -0.71700
O136        O  0.11060409  0.13825299  0.41106564    -0.71700
O137        O  0.13868977  0.16884640  0.41464144    -0.71700
O138        O  0.09674267  0.20151497  0.46426329    -0.71700
O139        O  0.13633417  0.16845376  0.46602659    -0.71700
O140        O  0.09920766  0.20180682  0.41283510    -0.71800
V141        V  0.09155362  0.15380948  0.43811920     1.35200
V142        V  0.11721287  0.18454704  0.43944537     1.35200
C143        C  0.07838128  0.19247696  0.40453211     0.77600
C144        C  0.13059569  0.14588471  0.47295173     0.77600
C145        C  0.07725565  0.19035440  0.47352927     0.77500
C146        C  0.13173647  0.14813367  0.40412025     0.77500
C147        C  0.63459752  0.33363187  0.88174182     0.80300
N148        N  0.61892928  0.31650566  0.86997484    -0.78000
C149        C  0.60433771  0.29998437  0.88380298     0.82800
N150        N  0.60535389  0.30062740  0.90979777    -0.77900
C151        C  0.62140115  0.31723519  0.92186837     0.82900
N152        N  0.63596682  0.33374831  0.90781651    -0.79600
C153        C  0.60655469  0.30356391  0.98986481     0.80300
N154        N  0.62337258  0.31941361  0.00192388    -0.78000
C155        C  0.63985767  0.33438778  0.98824267     0.82800
N156        N  0.63927998  0.33329179  0.96222892    -0.77900
C157        C  0.62237391  0.31773154  0.94996238     0.82900
N158        N  0.60595528  0.30298960  0.96383305    -0.79600
O159        O  0.79660103  0.47523231  0.11462837    -0.71700
O160        O  0.76221246  0.52670745  0.07572505    -0.71900
O161        O  0.79845791  0.52662776  0.11241215    -0.71700
O162        O  0.76063997  0.47516431  0.07784717    -0.71700
O163        O  0.73124088  0.47664051  0.10732187    -0.71700
O164        O  0.76817756  0.52966996  0.14101453    -0.71700
O165        O  0.73213161  0.52817911  0.10446848    -0.71700
O166        O  0.76727044  0.47808465  0.14403958    -0.71800
V167        V  0.77889396  0.50098351  0.09569954     1.35200
V168        V  0.75027463  0.50309964  0.12365722     1.35200
C169        C  0.78781155  0.46781395  0.13600383     0.77600
C170        C  0.74114345  0.53619247  0.08343957     0.77600
C171        C  0.78973551  0.53697339  0.13251467     0.77500
C172        C  0.73961210  0.46688866  0.08673848     0.77500
C173        C  0.64282750  0.67283686  0.88266157     0.80300
N174        N  0.62542504  0.68759854  0.87001279    -0.78000
C175        C  0.61085875  0.70496570  0.88291383     0.82800
N176        N  0.61316303  0.70691980  0.90876574    -0.77900
C177        C  0.63034324  0.69207055  0.92159968     0.82900
N178        N  0.64508209  0.67496657  0.90851458    -0.79600
C179        C  0.61323487  0.70630486  0.98889115     0.80300
N180        N  0.62975317  0.69047236  0.00168465    -0.78000
C181        C  0.64697540  0.67581156  0.98846936     0.82800
N182        N  0.64732524  0.67681180  0.96246516    -0.77900
C183        C  0.63123972  0.69275637  0.94963682     0.82900
N184        N  0.61429613  0.70746481  0.96288777    -0.79600
C185        C  0.27380177  0.68802247  0.88818578     0.80300
N186        N  0.25772005  0.67228945  0.87487768    -0.78000
C187        C  0.24059773  0.65698426  0.88741969     0.82800
N188        N  0.23932102  0.65805548  0.91347886    -0.77900
C189        C  0.25522300  0.67382173  0.92689619     0.82900
N190        N  0.27232714  0.68874029  0.91415677    -0.79600
C191        C  0.23439027  0.66255091  0.99389789     0.80300
N192        N  0.23576613  0.66149413  0.96790153    -0.78000
C193        C  0.25412796  0.67478367  0.95504095     0.82800
N194        N  0.27154233  0.68896514  0.96835210    -0.77900
C195        C  0.27061006  0.69001182  0.99441231     0.82900
N196        N  0.25211387  0.67659315  0.00694686    -0.79600
O197        O  0.41065007  0.81725523  0.07787351    -0.71700
O198        O  0.46205312  0.85706913  0.11116462    -0.71900
O199        O  0.46242305  0.81897790  0.07640730    -0.71700
O200        O  0.41050346  0.85557725  0.11281144    -0.71700
O201        O  0.41141990  0.82661058  0.14275564    -0.71700
O202        O  0.46522488  0.79176109  0.10776413    -0.71700
O203        O  0.46260119  0.82956945  0.14255335    -0.71700
O204        O  0.41376704  0.78842739  0.10787919    -0.71800
V205        V  0.43638970  0.83666453  0.09509828     1.35200
V206        V  0.43816700  0.80961404  0.12459985     1.35200
C207        C  0.40391550  0.79571494  0.08694295     0.77600
C208        C  0.47080439  0.85019542  0.13274893     0.77600
C209        C  0.47310239  0.79933150  0.08609733     0.77500
C210        C  0.40247971  0.84760476  0.13433463     0.77500
C211        C  0.26456116  0.29854084  0.88567738     0.80300
N212        N  0.26523098  0.29946477  0.91176659    -0.78000
C213        C  0.24957767  0.31586845  0.92472689     0.82800
N214        N  0.23355668  0.33163707  0.91153474    -0.77900
C215        C  0.23265343  0.33096217  0.88556157     0.82900
N216        N  0.24846624  0.31456966  0.87275827    -0.79600
C217        C  0.23806766  0.33885018  0.99080134     0.80300
N218        N  0.25597827  0.32520252  0.00412169    -0.78000
C219        C  0.27150072  0.30815178  0.99177822     0.82800
N220        N  0.26895579  0.30458520  0.96609613    -0.77900
C221        C  0.25115573  0.31814706  0.95270537     0.82900
N222        N  0.23574987  0.33514427  0.96513393    -0.79600
C223        C  0.87827182  0.33513238  0.63010730     0.80300
N224        N  0.86517517  0.31856235  0.61480988    -0.78000
C225        C  0.87768571  0.29955324  0.60204621     0.82800
N226        N  0.90367095  0.29744085  0.60431449    -0.77900
C227        C  0.91685118  0.31373343  0.61992486     0.82900
N228        N  0.90403210  0.33234116  0.63282303    -0.79600
C229        C  0.98410878  0.29403128  0.60782710     0.80300
N230        N  0.99703054  0.31059675  0.62332516    -0.78000
C231        C  0.98421019  0.32793735  0.63807075     0.82800
N232        N  0.95811751  0.32897681  0.63702646    -0.77900
C233        C  0.94495350  0.31226513  0.62186415     0.82900
N234        N  0.95800981  0.29503927  0.60736499    -0.79600
O235        O  0.10876685  0.46943220  0.72755208    -0.71700
O236        O  0.14235084  0.52393721  0.76290692    -0.71900
O237        O  0.14365438  0.47260437  0.76570227    -0.71700
O238        O  0.10750831  0.52101912  0.72472833    -0.71700
O239        O  0.07733753  0.52280707  0.75343457    -0.71700
O240        O  0.11195967  0.47213056  0.79293820    -0.71700
O241        O  0.11215896  0.52385794  0.79162916    -0.71700
O242        O  0.07731252  0.47113863  0.75479736    -0.71800
V243        V  0.12496127  0.49675735  0.74574191     1.35200
V244        V  0.09528455  0.49749089  0.77265887     1.35200
C245        C  0.08710372  0.46115896  0.73489256     0.77600
C246        C  0.13320331  0.53298778  0.78353866     0.77600
C247        C  0.13387356  0.46408949  0.78620536     0.77500
C248        C  0.08637646  0.53045560  0.73225203     0.77500
C249        C  0.88520571  0.66304226  0.63093642     0.80300
N250        N  0.87152554  0.67921131  0.61561611    -0.78000
C251        C  0.88355202  0.69519768  0.59887613     0.82800
N252        N  0.90966643  0.69459580  0.59726731    -0.77900
C253        C  0.92358805  0.67856996  0.61248019     0.82900
N254        N  0.91127290  0.66293961  0.62935211    -0.79600
C255        C  0.99030996  0.69196385  0.59137482     0.80300
N256        N  0.00377778  0.67532507  0.60630680    -0.78000
C257        C  0.99150169  0.65966862  0.62317123     0.82800
N258        N  0.96543617  0.66082237  0.62493898    -0.77900
C259        C  0.95176270  0.67752943  0.61021391     0.82900
N260        N  0.96426945  0.69304946  0.59333339    -0.79600
O261        O  0.10592319  0.79595576  0.40687645    -0.71700
O262        O  0.14689031  0.82933541  0.45680033    -0.71900
O263        O  0.10821038  0.79514091  0.45819084    -0.71700
O264        O  0.14453299  0.83001229  0.40551390    -0.71700
O265        O  0.11702052  0.86130111  0.40704618    -0.71700
O266        O  0.08051006  0.82630171  0.45985934    -0.71700
O267        O  0.11933884  0.86062240  0.45847997    -0.71700
O268        O  0.07822292  0.82708410  0.40841702    -0.71800
V269        V  0.12583259  0.81322320  0.43189424     1.35200
V270        V  0.09928858  0.84324744  0.43344525     1.35200
C271        C  0.08500415  0.80562157  0.39919727     0.77600
C272        C  0.14039900  0.85089157  0.46587494     0.77600
C273        C  0.08789769  0.80450327  0.46776119     0.77500
C274        C  0.13724774  0.85173002  0.39742257     0.77500
C275        C  0.87997865  0.70814115  0.25938370     0.80300
N276        N  0.90597704  0.71037765  0.25823154    -0.78000
C277        C  0.91984088  0.69581248  0.24153287     0.82800
N278        N  0.90757549  0.67910213  0.22577551    -0.77900
C279        C  0.88158862  0.67708001  0.22652482     0.82900
N280        N  0.86789976  0.69132805  0.24356085    -0.79600
C281        C  0.98777138  0.67610219  0.23384768     0.80300
N282        N  0.96199130  0.67791859  0.22997922    -0.78000
C283        C  0.94798884  0.69573661  0.24299394     0.82800
N284        N  0.95989403  0.71174038  0.25968256    -0.77900
C285        C  0.98556216  0.71012682  0.26379591     0.82900
N286        N  0.99944569  0.69210459  0.25083327    -0.79600
C287        C  0.87750279  0.30438126  0.27768397     0.80300
N288        N  0.90355509  0.30228801  0.27599948    -0.78000
C289        C  0.91700801  0.31757303  0.25966627     0.82800
N290        N  0.90435401  0.33527622  0.24521989    -0.77900
C291        C  0.87842610  0.33763585  0.24690975     0.82900
N292        N  0.86512042  0.32216774  0.26309874    -0.79600
C293        C  0.98419350  0.33118770  0.24103999     0.80300
N294        N  0.95813335  0.33165481  0.24202430    -0.78000
C295        C  0.94517016  0.31576023  0.25810030     0.82800
N296        N  0.95847007  0.29932048  0.27347606    -0.77900
C297        C  0.98463427  0.29876476  0.27274920     0.82900
N298        N  0.99737799  0.31458526  0.25630160    -0.79600
O299        O  0.10056293  0.47321545  0.14604904    -0.71700
O300        O  0.13595933  0.52499232  0.10903954    -0.71900
O301        O  0.10045030  0.52504988  0.14642424    -0.71700
O302        O  0.13606544  0.47363545  0.10872916    -0.71700
O303        O  0.10650067  0.47468382  0.07938727    -0.71700
O304        O  0.06958216  0.52429276  0.11847182    -0.71700
O305        O  0.10493159  0.52632402  0.08109878    -0.71700
O306        O  0.07098657  0.47243278  0.11675662    -0.71800
V307        V  0.11762514  0.49923307  0.12705090     1.35200
V308        V  0.08853328  0.49941636  0.09950752     1.35200
C309        C  0.08008686  0.46342272  0.13743179     0.77600
C310        C  0.12652369  0.53438789  0.08874575     0.77600
C311        C  0.07892479  0.53358236  0.13887209     0.77500
C312        C  0.12758962  0.46558627  0.08743999     0.77500
C313        C  0.99807094  0.34951829  0.22444029    -0.11800
C314        C  0.99174870  0.37591225  0.22426360     0.03600
C315        C  0.00518806  0.39281616  0.20835303    -0.12400
C316        C  0.02500179  0.38396415  0.19240696     0.18500
C317        C  0.03148553  0.35764479  0.19261087    -0.09400
C318        C  0.01810977  0.34066258  0.20866573    -0.02400
H319        H  0.00050029  0.41312091  0.20877963     0.05000
C320        C  0.03947942  0.40291632  0.17694663     0.20500
H321        H  0.02314873  0.32044201  0.20859525     0.10200
C322        C  0.06518680  0.40799547  0.18316386    -0.15800
C323        C  0.07902528  0.42714972  0.17034269     0.03200
C324        C  0.06684720  0.44212975  0.15109916    -0.11100
C325        C  0.04118209  0.43650450  0.14459220    -0.01100
C326        C  0.02755398  0.41712126  0.15726463    -0.06300
H327        H  0.07449349  0.39707983  0.19826895     0.06200
H328        H  0.03148655  0.44737910  0.12971575     0.09600
Br329      Br  0.05788138  0.34398216  0.17077108    -0.06000
Br330      Br  0.96651950  0.39047764  0.24685393    -0.02900
Br331      Br  0.11459784  0.43074303  0.17971693    -0.00100
Br332      Br  0.99284363  0.41039427  0.14668219    -0.04500
C333        C  0.06567545  0.55452227  0.15320931    -0.11800
C334        C  0.03916241  0.56006117  0.15016602     0.03600
C335        C  0.02807862  0.58068487  0.16345934    -0.12400
C336        C  0.04277972  0.59620906  0.17982758     0.18500
C337        C  0.06906547  0.59063648  0.18315958    -0.09400
C338        C  0.08023452  0.56997787  0.16998428    -0.02400
H339        H  0.00772480  0.58459049  0.16112688     0.05000
C340        C  0.03002897  0.61764034  0.19366426     0.20500
H341        H  0.10060010  0.56632735  0.17254887     0.10200
C342        C  0.02709209  0.61618883  0.22041986    -0.15800
C343        C  0.01372919  0.63532501  0.23385340     0.03200
C344        C  0.00277344  0.65616747  0.22044458    -0.11100
C345        C  0.00578395  0.65772091  0.19375089    -0.01100
C346        C  0.01950497  0.63881116  0.18036002    -0.06300
H347        H  0.03484555  0.59987055  0.23081747     0.06200
H348        H  0.99759710  0.67380791  0.18332361     0.09600
Br349      Br  0.09071681  0.61133558  0.20464553    -0.06000
Br350      Br  0.01648293  0.53993135  0.12913973    -0.02900
Br351      Br  0.00965589  0.63144822  0.27026100    -0.00100
Br352      Br  0.02403531  0.64308455  0.14405291    -0.04500
C353        C  0.06906753  0.79247762  0.37961315    -0.11800
C354        C  0.07244251  0.76618370  0.37341083     0.03600
C355        C  0.05777179  0.75514396  0.35390550    -0.12400
C356        C  0.03978323  0.76966511  0.34007534     0.18500
C357        C  0.03560975  0.79555047  0.34676745    -0.09400
C358        C  0.05020111  0.80672051  0.36637360    -0.02400
H359        H  0.06049612  0.73499646  0.34936065     0.05000
C360        C  0.02550106  0.75695884  0.31910335     0.20500
H361        H  0.04710960  0.82681325  0.37086910     0.10200
C362        C  0.99886128  0.75374591  0.32127916    -0.15800
C363        C  0.98511743  0.73937759  0.30322041     0.03200
C364        C  0.99837027  0.72731590  0.28261716    -0.11100
C365        C  0.02501017  0.73128543  0.28023472    -0.01100
C366        C  0.03850710  0.74603673  0.29806967    -0.06300
H367        H  0.98878369  0.76190784  0.33756572     0.06200
H368        H  0.03554063  0.72283846  0.26439405     0.09600
Br369      Br  0.01106826  0.81674326  0.32908473    -0.06000
Br370      Br  0.09596727  0.74360180  0.39088090    -0.02900
Br371      Br  0.94874514  0.73634879  0.30936485    -0.00100
Br372      Br  0.07471154  0.75091968  0.29265272    -0.04500
C373        C  0.00413471  0.70925882  0.57380239    -0.11800
C374        C  0.00052902  0.70810837  0.54704276     0.03600
C375        C  0.01459795  0.72445258  0.53095963    -0.12400
C376        C  0.03218835  0.74216530  0.54119291     0.18500
C377        C  0.03530529  0.74369794  0.56802387    -0.09400
C378        C  0.02161183  0.72701730  0.58405064    -0.02400
H379        H  0.01200845  0.72317978  0.51034845     0.05000
C380        C  0.04684299  0.75893733  0.52349289     0.20500
H381        H  0.02428573  0.72819826  0.60465846     0.10200
C382        C  0.03366563  0.77766015  0.50924577    -0.15800
C383        C  0.04656052  0.79310758  0.49136968     0.03200
C384        C  0.07333179  0.78991029  0.48749253    -0.11100
C385        C  0.08642653  0.77113162  0.50194056    -0.01100
C386        C  0.07345398  0.75567235  0.51968269    -0.06300
H387        H  0.01311306  0.77999452  0.51179554     0.06200
H388        H  0.10686805  0.76816217  0.49919495     0.09600
Br389      Br  0.05713455  0.76894558  0.58367625    -0.06000
Br390      Br  0.97765077  0.68367854  0.53159483    -0.02900
Br391      Br  0.02589178  0.81668233  0.47180606    -0.00100
Br392      Br  0.09269677  0.72940632  0.53713066    -0.04500
C393        C  0.00608802  0.64076191  0.63883319    -0.11800
C394        C  0.03174378  0.64504807  0.64694824     0.03600
C395        C  0.04453341  0.62632885  0.66146024    -0.12400
C396        C  0.03228114  0.60337104  0.66825672     0.18500
C397        C  0.00680414  0.59904735  0.66043161    -0.09400
C398        C  0.99394019  0.61762611  0.64585990    -0.02400
H399        H  0.06406372  0.62984186  0.66783063     0.05000
C400        C  0.04609381  0.58458619  0.68438062     0.20500
H401        H  0.97438148  0.61379871  0.63980371     0.10200
C402        C  0.04274022  0.58537344  0.71102447    -0.15800
C403        C  0.05571209  0.56810138  0.72704897     0.03200
C404        C  0.07246499  0.54952706  0.71631017    -0.11100
C405        C  0.07590494  0.54903387  0.68952228    -0.01100
C406        C  0.06282217  0.56631414  0.67358776    -0.06300
H407        H  0.03007232  0.59966193  0.71939476     0.06200
H408        H  0.08855283  0.53490839  0.68086191     0.09600
Br409      Br  0.98898743  0.56796170  0.66914386    -0.06000
Br410      Br  0.05009132  0.67647078  0.64061803    -0.02900
Br411      Br  0.05060835  0.57207118  0.76333870    -0.00100
Br412      Br  0.06798331  0.56411490  0.63719352    -0.04500
C413        C  0.99871888  0.34663679  0.65372202    -0.11800
C414        C  0.01633303  0.33859672  0.67267933     0.03600
C415        C  0.03084507  0.35684737  0.68615993    -0.12400
C416        C  0.02812486  0.38321815  0.68101866     0.18500
C417        C  0.01025146  0.39124990  0.66228063    -0.09400
C418        C  0.99559819  0.37301535  0.64896750    -0.02400
H419        H  0.04434184  0.35045769  0.70069028     0.05000
C420        C  0.04405637  0.40211810  0.69525297     0.20500
H421        H  0.98207878  0.37943428  0.63446209     0.10200
C422        C  0.06358025  0.41544376  0.68230576    -0.15800
C423        C  0.07818935  0.43436614  0.69474235     0.03200
C424        C  0.07330335  0.44035011  0.72083978    -0.11100
C425        C  0.05402937  0.42646553  0.73382423    -0.01100
C426        C  0.03960454  0.40748247  0.72134302    -0.06300
H427        H  0.06718955  0.41135566  0.66223765     0.06200
H428        H  0.04999246  0.43045895  0.75382188     0.09600
Br429      Br  0.00500004  0.42693597  0.65445859    -0.06000
Br430      Br  0.02026080  0.30302318  0.68165394    -0.02900
Br431      Br  0.10334261  0.45198029  0.67425563    -0.00100
Br432      Br  0.01332175  0.39008285  0.74047249    -0.04500
C433        C  0.14257074  0.44649576  0.07237692    -0.11800
C434        C  0.13137498  0.43047458  0.05344918     0.03600
C435        C  0.14672925  0.41283996  0.04002940    -0.12400
C436        C  0.17310793  0.41074436  0.04512367     0.18500
C437        C  0.18435123  0.42677193  0.06367381    -0.09400
C438        C  0.16913362  0.44431481  0.07717103    -0.02400
H439        H  0.13801494  0.40048581  0.02574050     0.05000
C440        C  0.18875996  0.39179369  0.03092576     0.20500
H441        H  0.17825939  0.45650995  0.09133031     0.10200
C442        C  0.19782221  0.39804156  0.00639785    -0.15800
C443        C  0.21389922  0.38115190  0.99296020     0.03200
C444        C  0.22111903  0.35741455  0.00417029    -0.11100
C445        C  0.21181876  0.35121351  0.02873839    -0.01100
C446        C  0.19561972  0.36809766  0.04201928    -0.06300
H447        H  0.19278570  0.41639104  0.99791069     0.06200
H448        H  0.21692203  0.33303412  0.03753864     0.09600
Br449      Br  0.22054150  0.42559153  0.07087811    -0.06000
Br450      Br  0.09525710  0.43055047  0.04567883    -0.02900
Br451      Br  0.22670962  0.39267292  0.96031982    -0.00100
Br452      Br  0.18308219  0.35802627  0.07516716    -0.04500
C453        C  0.14762216  0.44499965  0.80173647    -0.11800
C454        C  0.17219792  0.45016572  0.81180225     0.03600
C455        C  0.18523718  0.43113499  0.82559603    -0.12400
C456        C  0.17416984  0.40683023  0.82928737     0.18500
C457        C  0.14940191  0.40182610  0.81956535    -0.09400
C458        C  0.13622853  0.42097766  0.80604674    -0.02400
H459        H  0.20411504  0.43523588  0.83339149     0.05000
C460        C  0.18877596  0.38696896  0.84331629     0.20500
H461        H  0.11733922  0.41688703  0.79826914     0.10200
C462        C  0.18035304  0.37917570  0.86763673    -0.15800
C463        C  0.19384493  0.36055996  0.88159563     0.03200
C464        C  0.21652616  0.34957546  0.87120349    -0.11100
C465        C  0.22462576  0.35730103  0.84661545    -0.01100
C466        C  0.21102382  0.37583115  0.83273995    -0.06300
H467        H  0.16309550  0.38759495  0.87574981     0.06200
H468        H  0.24190538  0.34923691  0.83821548     0.09600
Br469      Br  0.13340573  0.36878900  0.82316741    -0.06000
Br470      Br  0.18817362  0.48320821  0.80813918    -0.02900
Br471      Br  0.17921128  0.35041986  0.91394396    -0.00100
Br472      Br  0.22332702  0.38496874  0.79921708    -0.04500
C473        C  0.21498738  0.64728980  0.00823459    -0.11800
C474        C  0.19221954  0.63764621  0.99678486     0.03600
C475        C  0.17641090  0.62083073  0.01057769    -0.12400
C476        C  0.18218908  0.61413015  0.03599336     0.18500
C477        C  0.20362932  0.62531314  0.04806903    -0.09400
C478        C  0.21985976  0.64148936  0.03418311    -0.02400
H479        H  0.15970774  0.61258733  0.00126334     0.05000
C480        C  0.16715545  0.59380109  0.04890989     0.20500
H481        H  0.23673732  0.64905643  0.04373094     0.10200
C482        C  0.17986861  0.57108648  0.05604933    -0.15800
C483        C  0.16686464  0.55147927  0.06886034     0.03200
C484        C  0.14048966  0.55424814  0.07436539    -0.11100
C485        C  0.12745226  0.57650423  0.06635976    -0.01100
C486        C  0.14061812  0.59635489  0.05385568    -0.06300
H487        H  0.20011329  0.56865554  0.05168172     0.06200
H488        H  0.10714398  0.57876011  0.07050318     0.09600
Br489      Br  0.21154044  0.61916997  0.08357406    -0.06000
Br490      Br  0.18062041  0.64718427  0.96304513    -0.02900
Br491      Br  0.18578930  0.52083431  0.07719088    -0.00100
Br492      Br  0.12186256  0.62694957  0.04514505    -0.04500
C493        C  0.29014961  0.70497109  0.00887964    -0.11800
C494        C  0.28506702  0.71608405  0.03321620     0.03600
C495        C  0.30415384  0.73035986  0.04563913    -0.12400
C496        C  0.32836454  0.73385125  0.03443646     0.18500
C497        C  0.33370803  0.72251599  0.01053892    -0.09400
C498        C  0.31467118  0.70836261  0.99793035    -0.02400
H499        H  0.29999653  0.73910933  0.06406753     0.05000
C500        C  0.34763619  0.74979998  0.04778183     0.20500
H501        H  0.31917041  0.69987233  0.97947239     0.10200
C502        C  0.36827352  0.73784410  0.06032769    -0.15800
C503        C  0.38686013  0.75242552  0.07313993     0.03200
C504        C  0.38488853  0.77953624  0.07349312    -0.11100
C505        C  0.36428296  0.79143328  0.06069065    -0.01100
C506        C  0.34563097  0.77677976  0.04806726    -0.06300
H507        H  0.36998849  0.71708596  0.05999331     0.06200
H508        H  0.36249234  0.81218706  0.06077561     0.09600
Br509      Br  0.36653532  0.72642698  0.99416556    -0.06000
Br510      Br  0.25231537  0.71413337  0.05021583    -0.02900
Br511      Br  0.41523037  0.73420733  0.08830379    -0.00100
Br512      Br  0.31794636  0.79437597  0.03113160    -0.04500
C513        C  0.14746965  0.55302272  0.79812346    -0.11800
C514        C  0.13528235  0.57034668  0.81523544     0.03600
C515        C  0.15002065  0.58806686  0.82920875    -0.12400
C516        C  0.17683041  0.58891079  0.82657626     0.18500
C517        C  0.18900286  0.57186733  0.80951443    -0.09400
C518        C  0.17436616  0.55435132  0.79532021    -0.02400
H519        H  0.14053835  0.60120097  0.84229167     0.05000
C520        C  0.19199876  0.60701441  0.84240919     0.20500
H521        H  0.18421691  0.54123564  0.78250117     0.10200
C522        C  0.19947538  0.59960012  0.86716278    -0.15800
C523        C  0.21514948  0.61545658  0.88223820     0.03200
C524        C  0.22344424  0.63954942  0.87260245    -0.11100
C525        C  0.21562998  0.64693466  0.84777519    -0.01100
C526        C  0.20006507  0.63092945  0.83275269    -0.06300
H527        H  0.19361094  0.58102851  0.87453333     0.06200
H528        H  0.22164464  0.66526881  0.83995527     0.09600
Br529      Br  0.22570722  0.57131081  0.80569425    -0.06000
Br530      Br  0.09868164  0.57162808  0.81991935    -0.02900
Br531      Br  0.22606623  0.60176461  0.91474022    -0.00100
Br532      Br  0.19048386  0.64229071  0.79903560    -0.04500
C533        C  0.59341020  0.72118514  0.00300080    -0.11800
C534        C  0.56836941  0.72504534  0.99295348     0.03600
C535        C  0.55023643  0.73906278  0.00698737    -0.12400
C536        C  0.55635030  0.74945429  0.03100561     0.18500
C537        C  0.58118878  0.74565661  0.04112647    -0.09400
C538        C  0.59943677  0.73155431  0.02718271    -0.02400
H539        H  0.53099590  0.74147656  0.99932538     0.05000
C540        C  0.53597255  0.76292128  0.04563207     0.20500
H541        H  0.61850581  0.72891182  0.03517352     0.10200
C542        C  0.52540627  0.75098375  0.06729284    -0.15800
C543        C  0.50490222  0.76215296  0.08070808     0.03200
C544        C  0.49457041  0.78605946  0.07249190    -0.11100
C545        C  0.50537812  0.79790951  0.05068575    -0.01100
C546        C  0.52576069  0.78654127  0.03727954    -0.06300
H547        H  0.53288787  0.73254309  0.07351879     0.06200
H548        H  0.49804059  0.81622098  0.04397167     0.09600
Br549      Br  0.59118307  0.75992506  0.07357047    -0.06000
Br550      Br  0.55666964  0.71021703  0.96122979    -0.02900
Br551      Br  0.49179213  0.74279865  0.10928303    -0.00100
Br552      Br  0.53933288  0.80417603  0.00788503    -0.04500
C553        C  0.86866539  0.65712547  0.21148575    -0.11800
C554        C  0.87109566  0.65565776  0.18459846     0.03600
C555        C  0.85864042  0.63596331  0.17122508    -0.12400
C556        C  0.84405434  0.61758883  0.18445620     0.18500
C557        C  0.84221305  0.61869865  0.21135039    -0.09400
C558        C  0.85423950  0.63857750  0.22463255    -0.02400
H559        H  0.86008895  0.63510893  0.15049398     0.05000
C560        C  0.83035435  0.59760567  0.17003728     0.20500
H561        H  0.85278028  0.63924716  0.24536123     0.10200
C562        C  0.84379787  0.57578394  0.16176498    -0.15800
C563        C  0.83088991  0.55572055  0.14946730     0.03200
C564        C  0.80410625  0.55747146  0.14545045    -0.11100
C565        C  0.79075713  0.57942909  0.15365309    -0.01100
C566        C  0.80373823  0.59956247  0.16566440    -0.06300
H567        H  0.86426683  0.57415336  0.16537788     0.06200
H568        H  0.77023073  0.58107660  0.15037835     0.09600
Br569      Br  0.82401119  0.59311148  0.23069346    -0.06000
Br570      Br  0.89010769  0.68068322  0.16532361    -0.02900
Br571      Br  0.85040528  0.52571834  0.14027235    -0.00100
Br572      Br  0.78453475  0.62949030  0.17560198    -0.04500
C573        C  0.80109000  0.44790427  0.15160644    -0.11800
C574        C  0.82065149  0.43175226  0.14158435     0.03600
C575        C  0.83267054  0.41370838  0.15754271    -0.12400
C576        C  0.82541703  0.41110873  0.18328469     0.18500
C577        C  0.80572054  0.42666599  0.19321817    -0.09400
C578        C  0.79379312  0.44487511  0.17747582    -0.02400
H579        H  0.84768472  0.40149050  0.14980510     0.05000
C580        C  0.83871625  0.39212962  0.19958328     0.20500
H581        H  0.77877454  0.45678433  0.18564278     0.10200
C582        C  0.85852939  0.40040638  0.21581377    -0.15800
C583        C  0.87147652  0.38292827  0.23161479     0.03200
C584        C  0.86474484  0.35670226  0.23110107    -0.11100
C585        C  0.84457409  0.34853437  0.21518199    -0.01100
C586        C  0.83162159  0.36604674  0.19938865    -0.06300
H587        H  0.86372372  0.42056522  0.21636385     0.06200
H588        H  0.83910559  0.32844642  0.21480521     0.09600
Br589      Br  0.79425260  0.42330449  0.22807272    -0.06000
Br590      Br  0.83137415  0.43213381  0.10628026    -0.02900
Br591      Br  0.89674086  0.39613386  0.25492378    -0.00100
Br592      Br  0.80417333  0.35372995  0.17810737    -0.04500
C593        C  0.66311392  0.65652776  0.00165037    -0.11800
C594        C  0.67613656  0.66179066  0.02480234     0.03600
C595        C  0.69028687  0.64230318  0.03688648    -0.12400
C596        C  0.69180595  0.61764276  0.02610510     0.18500
C597        C  0.67938838  0.61254999  0.00271356    -0.09400
C598        C  0.66531768  0.63195250  0.99061783    -0.02400
H599        H  0.69997395  0.64630734  0.05486044     0.05000
C600        C  0.70472563  0.59691894  0.04044878     0.20500
H601        H  0.65545988  0.62757620  0.97282055     0.10200
C602        C  0.69094605  0.58414977  0.05963534    -0.15800
C603        C  0.70204981  0.56401214  0.07353269     0.03200
C604        C  0.72781176  0.55655767  0.06849314    -0.11100
C605        C  0.74141597  0.56935894  0.04890459    -0.01100
C606        C  0.73005501  0.58932942  0.03489700    -0.06300
H607        H  0.67124261  0.58972410  0.06359319     0.06200
H608        H  0.76109254  0.56403344  0.04456919     0.09600
Br609      Br  0.68029884  0.57910287  0.98717831    -0.06000
Br610      Br  0.67631793  0.69537380  0.04003743    -0.02900
Br611      Br  0.68015322  0.54724836  0.09810554    -0.00100
Br612      Br  0.74975063  0.60579408  0.00845608    -0.04500
C613        C  0.65767859  0.35201538  0.00191313    -0.11800
C614        C  0.66925020  0.37372282  0.99008389     0.03600
C615        C  0.68397849  0.39063135  0.00482453    -0.12400
C616        C  0.68783397  0.38636667  0.03106672     0.18500
C617        C  0.67738179  0.36438786  0.04267717    -0.09400
C618        C  0.66245974  0.34750951  0.02816763    -0.02400
H619        H  0.69204488  0.40763053  0.99587120     0.05000
C620        C  0.70149603  0.40595286  0.04621070     0.20500
H621        H  0.65440034  0.33084148  0.03766959     0.10200
C622        C  0.68753162  0.42095679  0.06368365    -0.15800
C623        C  0.69934824  0.44088080  0.07725495     0.03200
C624        C  0.72579232  0.44597789  0.07336469    -0.11100
C625        C  0.73967306  0.43067539  0.05589539    -0.01100
C626        C  0.72775801  0.41086551  0.04236004    -0.06300
H627        H  0.66716614  0.41745607  0.06635598     0.06200
H628        H  0.75998240  0.43403543  0.05273525     0.09600
Br629      Br  0.68320602  0.35653784  0.07821812    -0.06000
Br630      Br  0.66521375  0.38288294  0.95452083    -0.02900
Br631      Br  0.67767287  0.46099252  0.09940556    -0.00100
Br632      Br  0.74820747  0.39078906  0.01912459    -0.04500
C633        C  0.99781826  0.27626429  0.58993589    -0.11800
C634        C  0.02503051  0.27479748  0.58795697     0.03600
C635        C  0.03625587  0.25935894  0.56903967    -0.12400
C636        C  0.02116375  0.24527001  0.55181171     0.18500
C637        C  0.99429558  0.24578067  0.55422326    -0.09400
C638        C  0.98290155  0.26105602  0.57311469    -0.02400
H639        H  0.05702342  0.25870737  0.56737826     0.05000
C640        C  0.03399489  0.23102671  0.53091342     0.20500
H641        H  0.96210188  0.26142152  0.57405218     0.10200
C642        C  0.03437473  0.20406289  0.53128271    -0.15800
C643        C  0.04792550  0.19019844  0.51258971     0.03200
C644        C  0.06149708  0.20350173  0.49318347    -0.11100
C645        C  0.06062319  0.23050130  0.49273450    -0.01100
C646        C  0.04698239  0.24423830  0.51126105    -0.06300
H647        H  0.02457083  0.19381385  0.54650812     0.06200
H648        H  0.07058415  0.24105635  0.47782163     0.09600
Br649      Br  0.97228178  0.22714238  0.53125119    -0.06000
Br650      Br  0.04871651  0.29316587  0.60953942    -0.02900
Br651      Br  0.04858354  0.15343593  0.51587958    -0.00100
Br652      Br  0.04636590  0.28106907  0.50868468    -0.04500
C653        C  0.06387254  0.20589753  0.38426687    -0.11800
C654        C  0.03758409  0.21192464  0.38698327     0.03600
C655        C  0.02492095  0.22572140  0.36761725    -0.12400
C656        C  0.03797874  0.23323839  0.34522304     0.18500
C657        C  0.06411768  0.22661937  0.34232355    -0.09400
C658        C  0.07688819  0.21334577  0.36189853    -0.02400
H659        H  0.00492881  0.23103459  0.37023636     0.05000
C660        C  0.02456481  0.24937778  0.32592201     0.20500
H661        H  0.09704693  0.20854569  0.35952444     0.10200
C662        C  0.03320944  0.27456589  0.32172285    -0.15800
C663        C  0.02081928  0.29077308  0.30420209     0.03200
C664        C  0.99902045  0.28192427  0.29064134    -0.11100
C665        C  0.99026832  0.25673587  0.29499262    -0.01100
C666        C  0.00295857  0.24042562  0.31229027    -0.06300
H667        H  0.04954427  0.28177522  0.33243251     0.06200
H668        H  0.97364352  0.24961299  0.28468545     0.09600
Br669      Br  0.08298585  0.23454176  0.31166214    -0.06000
Br670      Br  0.01870110  0.20336873  0.41747343    -0.02900
Br671      Br  0.03360424  0.32529134  0.30123658    -0.00100
Br672      Br  0.99066571  0.20584965  0.31597346    -0.04500
C673        C  0.48994409  0.21278267  0.80457233    -0.11800
C674        C  0.50718818  0.20035355  0.82157387     0.03600
C675        C  0.52618206  0.21459999  0.83403180    -0.12400
C676        C  0.52829581  0.24107663  0.82999602     0.18500
C677        C  0.51145856  0.25352840  0.81294581    -0.09400
C678        C  0.49251674  0.23936061  0.80030141    -0.02400
H679        H  0.53932512  0.20501842  0.84706361     0.05000
C680        C  0.54790022  0.25545655  0.84424136     0.20500
H681        H  0.47955562  0.24924971  0.78732874     0.10200
C682        C  0.57308926  0.25634211  0.83478527    -0.15800
C683        C  0.59206093  0.27014544  0.84781684     0.03200
C684        C  0.58575685  0.28326259  0.87068031    -0.11100
C685        C  0.56066850  0.28157377  0.88050095    -0.01100
C686        C  0.54174912  0.26783859  0.86739604    -0.06300
H687        H  0.57794302  0.24632101  0.81721643     0.06200
H688        H  0.55557163  0.29154801  0.89802499     0.09600
Br689      Br  0.51363048  0.28980705  0.80656843    -0.06000
Br690      Br  0.50689764  0.16400969  0.82804352    -0.02900
Br691      Br  0.62639117  0.26929954  0.83421502    -0.00100
Br692      Br  0.50769241  0.26664909  0.88155176    -0.04500
C693        C  0.28304892  0.28215613  0.87147901    -0.11800
C694        C  0.27726248  0.27134311  0.84722226     0.03600
C695        C  0.29614633  0.25756917  0.83387382    -0.12400
C696        C  0.32074129  0.25418568  0.84429117     0.18500
C697        C  0.32643584  0.26442525  0.86858493    -0.09400
C698        C  0.30764939  0.27816426  0.88200899    -0.02400
H699        H  0.29162413  0.24937962  0.81528301     0.05000
C700        C  0.34034262  0.24000607  0.82953436     0.20500
H701        H  0.31257588  0.28633865  0.90049540     0.10200
C702        C  0.35583124  0.25338323  0.81207121    -0.15800
C703        C  0.37530817  0.24073352  0.79843986     0.03200
C704        C  0.37943195  0.21406500  0.80223093    -0.11100
C705        C  0.36357256  0.20080730  0.81967288    -0.01100
C706        C  0.34414971  0.21353595  0.83319175    -0.06300
H707        H  0.35300826  0.27380539  0.80937124     0.06200
H708        H  0.36620201  0.18037279  0.82280737     0.09600
Br709      Br  0.35981314  0.26052109  0.88384080    -0.06000
Br710      Br  0.24378570  0.27344073  0.83172486    -0.02900
Br711      Br  0.39620657  0.26159352  0.77627158    -0.00100
Br712      Br  0.32331536  0.19413056  0.85659711    -0.04500
C713        C  0.22722893  0.06603818  0.58077912    -0.11800
C714        C  0.20112938  0.05917439  0.57803274     0.03600
C715        C  0.18561135  0.07224480  0.56037359    -0.12400
C716        C  0.19566073  0.09214872  0.54523093     0.18500
C717        C  0.22158812  0.09937408  0.54835453    -0.09400
C718        C  0.23709130  0.08641012  0.56611113    -0.02400
H719        H  0.16553583  0.06698187  0.55854181     0.05000
C720        C  0.17861801  0.10554686  0.52678818     0.20500
H721        H  0.25711083  0.09186219  0.56801981     0.10200
C722        C  0.17237155  0.13144139  0.53101529    -0.15800
C723        C  0.15652001  0.14483720  0.51390067     0.03200
C724        C  0.14633062  0.13217638  0.49221948    -0.11100
C725        C  0.15205315  0.10605212  0.48837284    -0.01100
C726        C  0.16822833  0.09277687  0.50532181    -0.06300
H727        H  0.17988714  0.14126305  0.54772966     0.06200
H728        H  0.14454923  0.09613333  0.47171098     0.09600
Br729      Br  0.23698198  0.12605604  0.52807344    -0.06000
Br730      Br  0.18522802  0.03330072  0.59899054    -0.02900
Br731      Br  0.14848015  0.17998043  0.52188362    -0.00100
Br732      Br  0.17665506  0.05766184  0.49762560    -0.04500
C733        C  0.29552373  0.06619197  0.64634941    -0.11800
C734        C  0.28955952  0.09037230  0.65727875     0.03600
C735        C  0.30759301  0.10270444  0.67285171    -0.12400
C736        C  0.33151987  0.09141817  0.67783846     0.18500
C737        C  0.33752506  0.06733905  0.66725518    -0.09400
C738        C  0.31955702  0.05487989  0.65170728    -0.02400
H739        H  0.30292988  0.12121017  0.68121104     0.05000
C740        C  0.35004097  0.10539513  0.69388330     0.20500
H741        H  0.32458184  0.03641465  0.64348483     0.10200
C742        C  0.35104426  0.10038485  0.72026372    -0.15800
C743        C  0.36756300  0.11429648  0.73624439     0.03200
C744        C  0.38346534  0.13367243  0.72562962    -0.11100
C745        C  0.38230548  0.13844114  0.69905919    -0.01100
C746        C  0.36581317  0.12448272  0.68324206    -0.06300
H747        H  0.33864398  0.08580577  0.72847910     0.06200
H748        H  0.39445777  0.15296183  0.69040316     0.09600
Br749      Br  0.37018930  0.05114208  0.67314710    -0.06000
Br750      Br  0.25685812  0.10712710  0.65317531    -0.02900
Br751      Br  0.36625545  0.10647928  0.77228339    -0.00100
Br752      Br  0.36548574  0.13196103  0.64716219    -0.04500
C753        C  0.23370512  0.93204260  0.57477499    -0.11800
C754        C  0.23074998  0.94104031  0.54935602     0.03600
C755        C  0.21523752  0.92747699  0.53216562    -0.12400
C756        C  0.20251627  0.90507512  0.53990824     0.18500
C757        C  0.20557984  0.89592342  0.56511360    -0.09400
C758        C  0.22122006  0.90933176  0.58231374    -0.02400
H759        H  0.21317051  0.93433396  0.51262800     0.05000
C760        C  0.18651359  0.89123634  0.52120476     0.20500
H761        H  0.22330227  0.90222021  0.60175875     0.10200
C762        C  0.19801825  0.87285015  0.50532669    -0.15800
C763        C  0.18354325  0.85954478  0.48705099     0.03200
C764        C  0.15682532  0.86446415  0.48471673    -0.11100
C765        C  0.14553018  0.88323261  0.50058582    -0.01100
C766        C  0.16017061  0.89661814  0.51865308    -0.06300
H767        H  0.21845443  0.86905827  0.50699641     0.06200
H768        H  0.12518828  0.88749649  0.49903868     0.09600
Br769      Br  0.18859733  0.86534944  0.57677409    -0.06000
Br770      Br  0.24858501  0.97068117  0.53646044    -0.02900
Br771      Br  0.20209699  0.83631499  0.46511855    -0.00100
Br772      Br  0.14358231  0.92227023  0.53931527    -0.04500
C773        C  0.57891224  0.06076812  0.65524364    -0.11800
C774        C  0.55752183  0.04892492  0.66737402     0.03600
C775        C  0.54109212  0.06361654  0.68279942    -0.12400
C776        C  0.54542443  0.08989451  0.68652278     0.18500
C777        C  0.56719784  0.10147530  0.67556087    -0.09400
C778        C  0.58359211  0.08700547  0.65999044    -0.02400
H779        H  0.52438378  0.05463810  0.69141499     0.05000
C780        C  0.52648091  0.10508359  0.70114371     0.20500
H781        H  0.60007827  0.09645396  0.65148101     0.10200
C782        C  0.52494494  0.10209736  0.72781150    -0.15800
C783        C  0.50703037  0.11610640  0.74219504     0.03200
C784        C  0.49023320  0.13355061  0.72972242    -0.11100
C785        C  0.49189457  0.13634571  0.70292856    -0.01100
C786        C  0.50960599  0.12212929  0.68863530    -0.06300
H787        H  0.53786972  0.08889683  0.73747821     0.06200
H788        H  0.47894957  0.14924934  0.69290050     0.09600
Br789      Br  0.57532242  0.13697484  0.68148156    -0.06000
Br790      Br  0.54814406  0.01344299  0.66290639    -0.02900
Br791      Br  0.50745694  0.11103318  0.77869556    -0.00100
Br792      Br  0.50932127  0.12582259  0.65196078    -0.04500
C793        C  0.79375935  0.21391163  0.38722063    -0.11800
C794        C  0.80907376  0.20200727  0.36822892     0.03600
C795        C  0.82327943  0.21715174  0.35117694    -0.12400
C796        C  0.82250701  0.24402506  0.35274129     0.18500
C797        C  0.80733959  0.25593397  0.37162781    -0.09400
C798        C  0.79302571  0.24088740  0.38861204    -0.02400
H799        H  0.83468205  0.20796934  0.33637995     0.05000
C800        C  0.83673775  0.25933896  0.33372352     0.20500
H801        H  0.78144252  0.25032221  0.40310183     0.10200
C802        C  0.82417098  0.26702303  0.31124475    -0.15800
C803        C  0.83698344  0.28143486  0.29256066     0.03200
C804        C  0.86304459  0.28843686  0.29635418    -0.11100
C805        C  0.87555809  0.28039260  0.31895904    -0.01100
C806        C  0.86259488  0.26602953  0.33757782    -0.06300
H807        H  0.80427843  0.26161634  0.30817823     0.06200
H808        H  0.89541636  0.28563696  0.32242754     0.09600
Br809      Br  0.80571137  0.29264139  0.37488467    -0.06000
Br810      Br  0.80999293  0.16541380  0.36331239    -0.02900
Br811      Br  0.81784496  0.28944876  0.26200409    -0.00100
Br812      Br  0.88069515  0.25625545  0.36817137    -0.04500
C813        C  0.78945782  0.21271560  0.49319824    -0.11800
C814        C  0.79143777  0.23979317  0.49207869     0.03600
C815        C  0.80642166  0.25284847  0.51016281    -0.12400
C816        C  0.81973380  0.23937514  0.52931976     0.18500
C817        C  0.81797215  0.21242339  0.53037712    -0.09400
C818        C  0.80299992  0.19929757  0.51234357    -0.02400
H819        H  0.80796502  0.27359162  0.50911662     0.05000
C820        C  0.83524250  0.25382722  0.54812704     0.20500
H821        H  0.80195720  0.17851974  0.51327238     0.10200
C822        C  0.82532243  0.25797924  0.57277843    -0.15800
C823        C  0.83907497  0.27231822  0.59085543     0.03200
C824        C  0.86332135  0.28267836  0.58432636    -0.11100
C825        C  0.87347776  0.27789668  0.55980028    -0.01100
C826        C  0.85953424  0.26380320  0.54166567    -0.06300
H827        H  0.80671711  0.25013706  0.57790172     0.06200
H828        H  0.89199788  0.28578269  0.55445499     0.09600
Br829      Br  0.83630940  0.19280751  0.55566398    -0.06000
Br830      Br  0.77600815  0.25989247  0.46520309    -0.02900
Br831      Br  0.82420171  0.27606648  0.62438811    -0.00100
Br832      Br  0.87426889  0.25876770  0.50828096    -0.04500
C833        C  0.70966347  0.13412049  0.48943240    -0.11800
C834        C  0.68247133  0.13513381  0.49008017     0.03600
C835        C  0.66900682  0.12116876  0.50868077    -0.12400
C836        C  0.68210667  0.10613947  0.52676804     0.18500
C837        C  0.70909082  0.10468088  0.52593124    -0.09400
C838        C  0.72263400  0.11857159  0.50736004    -0.02400
H839        H  0.64817761  0.12195477  0.50901205     0.05000
C840        C  0.66721515  0.09167834  0.54602811     0.20500
H841        H  0.74344097  0.11739724  0.50712347     0.10200
C842        C  0.65507240  0.06880879  0.53872442    -0.15800
C843        C  0.64076819  0.05457596  0.55645278     0.03200
C844        C  0.63875946  0.06311339  0.58211975    -0.11100
C845        C  0.65039741  0.08642926  0.58916641    -0.01100
C846        C  0.66451227  0.10072063  0.57132290    -0.06300
H847        H  0.65655876  0.06214620  0.51907769     0.06200
H848        H  0.64873106  0.09343464  0.60867756     0.09600
Br849      Br  0.72812765  0.08366740  0.54954965    -0.06000
Br850      Br  0.66236136  0.15382360  0.46539253    -0.02900
Br851      Br  0.62270645  0.02497220  0.54384213    -0.00100
Br852      Br  0.67939612  0.13267765  0.58209490    -0.04500
C853        C  0.71777662  0.13740476  0.37903369    -0.11800
C854        C  0.69167027  0.14076976  0.37204981     0.03600
C855        C  0.68172000  0.12750595  0.35092953    -0.12400
C856        C  0.69722860  0.11085888  0.33655292     0.18500
C857        C  0.72322917  0.10773591  0.34309729    -0.09400
C858        C  0.73329207  0.12092020  0.36417516    -0.02400
H859        H  0.66155336  0.12964972  0.34606338     0.05000
C860        C  0.68526512  0.09537189  0.31617606     0.20500
H861        H  0.75341044  0.11823233  0.36893215     0.10200
C862        C  0.68279669  0.10548638  0.29135069    -0.15800
C863        C  0.66947228  0.09191053  0.27232124     0.03200
C864        C  0.65824586  0.06790012  0.27826358    -0.11100
C865        C  0.66181029  0.05746935  0.30291228    -0.01100
C866        C  0.67505385  0.07103670  0.32180408    -0.06300
H867        H  0.69097488  0.12410715  0.28689358     0.06200
H868        H  0.65335441  0.03911345  0.30791347     0.09600
Br869      Br  0.74544554  0.08529447  0.32403250    -0.06000
Br870      Br  0.66796598  0.16168672  0.39112853    -0.02900
Br871      Br  0.66807425  0.10669157  0.23855604    -0.00100
Br872      Br  0.67771729  0.05612715  0.35542038    -0.04500
C873        C  0.57932890  0.93534305  0.22219567    -0.11800
C874        C  0.55609201  0.94720600  0.21426929     0.03600
C875        C  0.53885997  0.93371555  0.19873085    -0.12400
C876        C  0.54414041  0.90846497  0.19116290     0.18500
C877        C  0.56694943  0.89646136  0.19923882    -0.09400
C878        C  0.58434556  0.90991694  0.21454965    -0.02400
H879        H  0.52097375  0.94275443  0.19293948     0.05000
C880        C  0.52494859  0.89436915  0.17605055     0.20500
H881        H  0.60198998  0.90046898  0.22026540     0.10200
C882        C  0.52702013  0.89370078  0.14923900    -0.15800
C883        C  0.50944843  0.87963943  0.13453741     0.03200
C884        C  0.48952212  0.86597204  0.14688758    -0.11100
C885        C  0.48753717  0.86689019  0.17375858    -0.01100
C886        C  0.50496183  0.88105207  0.18832365    -0.06300
H887        H  0.54257908  0.90383237  0.13979833     0.06200
H888        H  0.47225783  0.85661932  0.18350543     0.09600
Br889      Br  0.57478526  0.86155948  0.19020454    -0.06000
Br890      Br  0.54552260  0.98085158  0.22526181    -0.02900
Br891      Br  0.51477691  0.87838228  0.09808183    -0.00100
Br892      Br  0.50103044  0.88142464  0.22495386    -0.04500
C893        C  0.38513813  0.22022283  0.07242209    -0.11800
C894        C  0.36465853  0.23236132  0.08547599     0.03600
C895        C  0.34690589  0.24714626  0.07174602    -0.12400
C896        C  0.34919741  0.25009947  0.04512725     0.18500
C897        C  0.36986748  0.23843678  0.03211770    -0.09400
C898        C  0.38749265  0.22338374  0.04575755    -0.02400
H899        H  0.33094091  0.25601063  0.08179740     0.05000
C900        C  0.32936983  0.26486172  0.03126915     0.20500
H901        H  0.40333893  0.21446645  0.03556809     0.10200
C902        C  0.32890566  0.29172275  0.03347168    -0.15800
C903        C  0.31002978  0.30620253  0.02088399     0.03200
C904        C  0.29125193  0.29368579  0.00592456    -0.11100
C905        C  0.29180289  0.26681411  0.00371025    -0.01100
C906        C  0.31051180  0.25235241  0.01648697    -0.06300
H907        H  0.34340545  0.30142186  0.04481017     0.06200
H908        H  0.27741584  0.25703818  0.99229375     0.09600
Br909      Br  0.37505089  0.24308984  0.99593365    -0.06000
Br910      Br  0.35884845  0.22807678  0.12163885    -0.02900
Br911      Br  0.31176372  0.34298325  0.02336423    -0.00100
Br912      Br  0.30909950  0.21556265  0.01393347    -0.04500
C913        C  0.58797221  0.28814213  0.00472890    -0.11800
C914        C  0.59495980  0.27488544  0.02736060     0.03600
C915        C  0.57654711  0.26037447  0.04052550    -0.12400
C916        C  0.55115061  0.25894335  0.03160340     0.18500
C917        C  0.54400798  0.27265299  0.00942567    -0.09400
C918        C  0.56244724  0.28678343  0.99599412    -0.02400
H919        H  0.58207723  0.25000769  0.05770840     0.05000
C920        C  0.53217855  0.24371992  0.04615076     0.20500
H921        H  0.55666817  0.29723204  0.97894327     0.10200
C922        C  0.52393964  0.25269837  0.07008026    -0.15800
C923        C  0.50524343  0.23948101  0.08413333     0.03200
C924        C  0.49434337  0.21657565  0.07410225    -0.11100
C925        C  0.50334223  0.20734296  0.05031039    -0.01100
C926        C  0.52212627  0.22061770  0.03644227    -0.06300
H927        H  0.53189771  0.27035459  0.07771630     0.06200
H928        H  0.49569323  0.18974344  0.04228084     0.09600
Br929      Br  0.50908240  0.27365655  0.99747962    -0.06000
Br930      Br  0.62946303  0.27460768  0.04052370    -0.02900
Br931      Br  0.49593307  0.25442758  0.11658854    -0.00100
Br932      Br  0.53381122  0.20626038  0.00455060    -0.04500
C933        C  0.58691873  0.06811965  0.21653677    -0.11800
C934        C  0.56075024  0.06669778  0.22333293     0.03600
C935        C  0.54234146  0.07941371  0.20846590    -0.12400
C936        C  0.54961979  0.09339098  0.18662183     0.18500
C937        C  0.57584084  0.09478197  0.17982951    -0.09400
C938        C  0.59430781  0.08231577  0.19491747    -0.02400
H939        H  0.52230547  0.07867535  0.21412727     0.05000
C940        C  0.52976442  0.10770399  0.17219626     0.20500
H941        H  0.61439977  0.08327372  0.18949658     0.10200
C942        C  0.53058843  0.13462456  0.17225812    -0.15800
C943        C  0.51190903  0.14904581  0.15945675     0.03200
C944        C  0.49159349  0.13647022  0.14662145    -0.11100
C945        C  0.49093578  0.10947670  0.14628171    -0.01100
C946        C  0.50976437  0.09505746  0.15904130    -0.06300
H947        H  0.54597234  0.14447547  0.18225581     0.06200
H948        H  0.47557333  0.09957192  0.13630557     0.09600
Br949      Br  0.58720792  0.11260713  0.14963179    -0.06000
Br950      Br  0.54940374  0.04873686  0.25346924    -0.02900
Br951      Br  0.51632538  0.18571472  0.15874006    -0.00100
Br952      Br  0.50773891  0.05824361  0.15744951    -0.04500
C953        C  0.22458615  0.07097649  0.29165043    -0.11800
C954        C  0.21924370  0.06052696  0.31617827     0.03600
C955        C  0.20345758  0.07399601  0.33325002    -0.12400
C956        C  0.19280488  0.09776905  0.32645643     0.18500
C957        C  0.19809963  0.10832990  0.30220644    -0.09400
C958        C  0.21392264  0.09498062  0.28505307    -0.02400
H959        H  0.19967007  0.06602006  0.35210214     0.05000
C960        C  0.17687836  0.11151959  0.34539468     0.20500
H961        H  0.21774106  0.10334756  0.26638536     0.10200
C962        C  0.18896305  0.12712313  0.36362611    -0.15800
C963        C  0.17473715  0.13926137  0.38291426     0.03200
C964        C  0.14773624  0.13586517  0.38405366    -0.11100
C965        C  0.13575256  0.12017239  0.36562264    -0.01100
C966        C  0.15010560  0.10805949  0.34640160    -0.06300
H967        H  0.20967052  0.12946299  0.36310893     0.06200
H968        H  0.11511499  0.11733452  0.36610185     0.09600
Br969      Br  0.18419219  0.14092405  0.29188930    -0.06000
Br970      Br  0.23408551  0.02899452  0.32853008    -0.02900
Br971      Br  0.19384419  0.15854253  0.40793586    -0.00100
Br972      Br  0.13255140  0.08663223  0.32212246    -0.04500
C973        C  0.28861049  0.07501277  0.22241459    -0.11800
C974        C  0.30453067  0.09472159  0.23204422     0.03600
C975        C  0.32066399  0.10823094  0.21535853    -0.12400
C976        C  0.32100230  0.10273675  0.18899829     0.18500
C977        C  0.30460013  0.08354500  0.17926760    -0.09400
C978        C  0.28877657  0.06967247  0.19600411    -0.02400
H979        H  0.33350627  0.12267753  0.22307760     0.05000
C980        C  0.34016294  0.11576340  0.17253441     0.20500
H981        H  0.27636431  0.05483112  0.18833851     0.10200
C982        C  0.36017964  0.10116872  0.16179466    -0.15800
C983        C  0.38005819  0.11296910  0.14808848     0.03200
C984        C  0.38026011  0.13992114  0.14526250    -0.11100
C985        C  0.36009024  0.15448707  0.15578013    -0.01100
C986        C  0.34000824  0.14262798  0.16912426    -0.06300
H987        H  0.36069668  0.08053904  0.16470625     0.06200
H988        H  0.35990487  0.17519736  0.15351843     0.09600
Br989      Br  0.30264849  0.07616430  0.14323667    -0.06000
Br990      Br  0.30661103  0.10271522  0.26797711    -0.02900
Br991      Br  0.40746449  0.09157500  0.13563241    -0.00100
Br992      Br  0.31257472  0.16381466  0.18184795    -0.04500
C993        C  0.22483814  0.93725591  0.28637233    -0.11800
C994        C  0.21279223  0.91407212  0.27897541     0.03600
C995        C  0.19754917  0.90064724  0.29660901    -0.12400
C996        C  0.19379340  0.91007269  0.32151712     0.18500
C997        C  0.20526377  0.93343721  0.32877198    -0.09400
C998        C  0.22052959  0.94687765  0.31122163    -0.02400
H999        H  0.18853404  0.88277711  0.29087377     0.05000
C1000       C  0.17881348  0.89472168  0.34006216     0.20500
H1001       H  0.22956733  0.96463936  0.31724604     0.13800
C1002       C  0.19093804  0.87434820  0.35279000    -0.15800
C1003       C  0.17788192  0.85988107  0.37129563     0.03200
C1004       C  0.15192360  0.86576689  0.37733011    -0.11100
C1005       C  0.13978972  0.88607507  0.36410731    -0.01100
C1006       C  0.15297731  0.90041982  0.34557660    -0.06300
H1007       H  0.21088239  0.86996445  0.34858171     0.06200
H1008       H  0.11991649  0.89086781  0.36814668     0.09600
Br1009     Br  0.20123540  0.94722151  0.36270122    -0.06000
Br1010     Br  0.21504128  0.90055257  0.24476277    -0.02900
Br1011     Br  0.19749275  0.83341374  0.38810018    -0.00100
Br1012     Br  0.13503845  0.92756745  0.32816328    -0.04500
C1013       C  0.38341712  0.86272090  0.14934068    -0.11800
C1014       C  0.38177011  0.86107498  0.17644306     0.03600
C1015       C  0.36368001  0.87593823  0.18972578    -0.12400
C1016       C  0.34723819  0.89282315  0.17667003     0.18500
C1017       C  0.34906693  0.89491241  0.14981627    -0.09400
C1018       C  0.36700033  0.87993693  0.13638238    -0.02400
H1019       H  0.36264007  0.87458985  0.21045025     0.05000
C1020       C  0.32855794  0.90826679  0.19158260     0.20500
H1021       H  0.36800012  0.88169400  0.11569438     0.10200
C1022       C  0.33377968  0.93419363  0.19663154    -0.15800
C1023       C  0.31713778  0.94906856  0.21176801     0.03200
C1024       C  0.29435131  0.93797692  0.22190655    -0.11100
C1025       C  0.28936806  0.91186761  0.21662204    -0.01100
C1026       C  0.30623523  0.89707616  0.20181788    -0.06300
H1027       H  0.35124678  0.94275139  0.18918435     0.06200
H1028       H  0.27222136  0.90272211  0.22404273     0.09600
Br1029     Br  0.32716315  0.91768237  0.13074962    -0.06000
Br1030     Br  0.40466101  0.84051944  0.19694767    -0.02900
Br1031     Br  0.32813045  0.98359673  0.21895132    -0.00100
Br1032     Br  0.29797546  0.86160421  0.19599225    -0.04500
C1033       C  0.72141149  0.86666732  0.38184759    -0.11800
C1034       C  0.73341558  0.88428159  0.36494446     0.03600
C1035       C  0.71861622  0.89774939  0.34696247    -0.12400
C1036       C  0.69199048  0.89402612  0.34540785     0.18500
C1037       C  0.67998765  0.87653230  0.36210044    -0.09400
C1038       C  0.69467218  0.86300326  0.38007048    -0.02400
H1039       H  0.72795005  0.91098067  0.33387808     0.05000
C1040       C  0.67711926  0.90797888  0.32572247     0.20500
H1041       H  0.68504541  0.84973367  0.39289121     0.10200
C1042       C  0.66839067  0.89462095  0.30410344    -0.15800
C1043       C  0.65402682  0.90704567  0.28507898     0.03200
C1044       C  0.64804305  0.93350977  0.28764395    -0.11100
C1045       C  0.65727458  0.94684531  0.30928528    -0.01100
C1046       C  0.67166370  0.93431418  0.32820246    -0.06300
H1047       H  0.67292499  0.87438761  0.30198737     0.06200
H1048       H  0.65292508  0.96706120  0.31181386     0.09600
Br1049     Br  0.64350556  0.87099351  0.36139464    -0.06000
Br1050     Br  0.76992900  0.88990198  0.36411081    -0.02900
Br1051     Br  0.64475023  0.88671448  0.25576390    -0.00100
Br1052     Br  0.68273124  0.95367993  0.35752717    -0.04500
C1053       C  0.79968885  0.78542269  0.48821828    -0.11800
C1054       C  0.82026780  0.79610603  0.50256925     0.03600
C1055       C  0.83303477  0.78113485  0.52087509    -0.12400
C1056       C  0.82587503  0.75561501  0.52537709     0.18500
C1057       C  0.80518704  0.74501228  0.51164447    -0.09400
C1058       C  0.79230617  0.75986112  0.49327949    -0.02400
H1059       H  0.84881013  0.78941424  0.53164686     0.05000
C1060       C  0.84060765  0.74032807  0.54421082     0.20500
H1061       H  0.77662676  0.75118042  0.48270997     0.10200
C1062       C  0.82958205  0.73448173  0.56802334    -0.15800
C1063       C  0.84322834  0.72037957  0.58645068     0.03200
C1064       C  0.86846612  0.71157184  0.58095247    -0.11100
C1065       C  0.87949792  0.71800146  0.55713171    -0.01100
C1066       C  0.86585821  0.73224682  0.53891467    -0.06300
H1067       H  0.81032573  0.74121052  0.57238416     0.06200
H1068       H  0.89872302  0.71152408  0.55234018     0.09600
Br1069     Br  0.79448536  0.71007576  0.51670397    -0.06000
Br1070     Br  0.83211808  0.83092528  0.49904069    -0.02900
Br1071     Br  0.82654175  0.71551966  0.61897834    -0.00100
Br1072     Br  0.88224469  0.73958104  0.50672296    -0.04500
C1073       C  0.72250268  0.86052775  0.49211657    -0.11800
C1074       C  0.73544067  0.87465927  0.51135291     0.03600
C1075       C  0.72137635  0.88662772  0.53084525    -0.12400
C1076       C  0.69451094  0.88485405  0.53163924     0.18500
C1077       C  0.68153080  0.87082977  0.51250103    -0.09400
C1078       C  0.69556785  0.85854283  0.49315868    -0.02400
H1079       H  0.73144471  0.89747316  0.54547427     0.05000
C1080       C  0.68039107  0.89917966  0.55164095     0.20500
H1081       H  0.68530743  0.84801961  0.47843562     0.10200
C1082       C  0.68105701  0.92606028  0.55120392    -0.15800
C1083       C  0.66725374  0.94063314  0.56906156     0.03200
C1084       C  0.65168717  0.92809479  0.58767393    -0.11100
C1085       C  0.65229152  0.90097601  0.58869719    -0.01100
C1086       C  0.66666129  0.88659975  0.57115562    -0.06300
H1087       H  0.69231216  0.93580533  0.53663887     0.06200
H1088       H  0.64143890  0.89067143  0.60314903     0.09600
Br1089     Br  0.64465783  0.86927188  0.51100170    -0.06000
Br1090     Br  0.77223412  0.87756250  0.51294581    -0.02900
Br1091     Br  0.67149152  0.97723868  0.56626640    -0.00100
Br1092     Br  0.66755614  0.84990092  0.57507462    -0.04500
C1093       C  0.79941551  0.79099314  0.37746986    -0.11800
C1094       C  0.82645028  0.78850723  0.37754771     0.03600
C1095       C  0.83882802  0.77609108  0.35716872    -0.12400
C1096       C  0.82480999  0.76656769  0.33620777     0.18500
C1097       C  0.79784581  0.76951392  0.33590390    -0.09400
C1098       C  0.78538632  0.78135371  0.35656747    -0.02400
H1099       H  0.85950934  0.77352223  0.35784073     0.05000
C1100       C  0.83848288  0.75222719  0.31573625     0.20500
H1101       H  0.76464665  0.78348712  0.35607140     0.10200
C1102       C  0.83261340  0.72619401  0.31193673    -0.15800
C1103       C  0.84561751  0.71158818  0.29352186     0.03200
C1104       C  0.86522391  0.72298400  0.27860199    -0.11100
C1105       C  0.87131801  0.74897285  0.28262575    -0.01100
C1106       C  0.85803125  0.76364581  0.30085728    -0.06300
H1107       H  0.81806470  0.71705914  0.32370234     0.06200
H1108       H  0.88629303  0.75799632  0.27131965     0.09600
Br1109     Br  0.77729260  0.75865307  0.30728293    -0.06000
Br1110     Br  0.84734715  0.80020319  0.40560150    -0.02900
Br1111     Br  0.83694127  0.67577663  0.29125467    -0.00100
Br1112     Br  0.86672616  0.79934783  0.30409221    -0.04500
C1113       C  0.38188290  0.78148266  0.80575921    -0.11800
C1114       C  0.38371714  0.75443353  0.80754458     0.03600
C1115       C  0.36524133  0.74067630  0.82129502    -0.12400
C1116       C  0.34483502  0.75333364  0.83346511     0.18500
C1117       C  0.34323282  0.78032693  0.83228471    -0.09400
C1118       C  0.36173833  0.79420600  0.81852729    -0.02400
H1119       H  0.36684873  0.71994252  0.82262511     0.05000
C1120       C  0.32599371  0.73778799  0.84784660     0.20500
H1121       H  0.36022046  0.81495985  0.81756985     0.10200
C1122       C  0.33353555  0.72655482  0.87110120    -0.15800
C1123       C  0.31700852  0.71013243  0.88446469     0.03200
C1124       C  0.29225445  0.70478881  0.87451626    -0.11100
C1125       C  0.28489207  0.71592609  0.85103640    -0.01100
C1126       C  0.30154637  0.73227629  0.83769580    -0.06300
H1127       H  0.35261355  0.73021858  0.87863282     0.06200
H1128       H  0.26606710  0.71198375  0.84304841     0.09600
Br1129     Br  0.31645991  0.79894257  0.84954558    -0.06000
Br1130     Br  0.41184678  0.73519902  0.79321960    -0.02900
Br1131     Br  0.33041529  0.69417456  0.91497222    -0.00100
Br1132     Br  0.29054714  0.74583667  0.80523169    -0.04500
C1133       C  0.48865991  0.86001165  0.72617363    -0.11800
C1134       C  0.49508673  0.88605707  0.73073497     0.03600
C1135       C  0.51346244  0.89813827  0.71532473    -0.12400
C1136       C  0.52565008  0.88489009  0.69531990     0.18500
C1137       C  0.51966444  0.85893447  0.69094221    -0.09400
C1138       C  0.50131483  0.84676324  0.70625300    -0.02400
H1139       H  0.51817230  0.91812655  0.71881945     0.05000
C1140       C  0.54458705  0.89859590  0.67933767     0.20500
H1141       H  0.49689057  0.82678202  0.70241738     0.10200
C1142       C  0.57065629  0.89184290  0.68102342    -0.15800
C1143       C  0.58920588  0.90514387  0.66686915     0.03200
C1144       C  0.58170036  0.92586643  0.65109230    -0.11100
C1145       C  0.55560441  0.93259500  0.64945149    -0.01100
C1146       C  0.53703619  0.91895619  0.66318332    -0.06300
H1147       H  0.57659255  0.87633635  0.69362146     0.06200
H1148       H  0.54958758  0.94825218  0.63707160     0.09600
Br1149     Br  0.53530483  0.83959755  0.66370450    -0.06000
Br1150     Br  0.47921785  0.90687799  0.75674939    -0.02900
Br1151     Br  0.62453692  0.89521254  0.67101341    -0.00100
Br1152     Br  0.50156007  0.92815377  0.65852664    -0.04500
C1153       C  0.49090288  0.78503432  0.80340601    -0.11800
C1154       C  0.51311655  0.77683906  0.79021979     0.03600
C1155       C  0.53271847  0.76432026  0.80361839    -0.12400
C1156       C  0.53044053  0.75958815  0.83001379     0.18500
C1157       C  0.50846038  0.76818772  0.84328967    -0.09400
C1158       C  0.48896272  0.78099242  0.82995385    -0.02400
H1159       H  0.54983860  0.75821407  0.79342455     0.05000
C1160       C  0.55121843  0.74563719  0.84328737     0.20500
H1161       H  0.47197518  0.78731298  0.84023438     0.10200
C1162       C  0.56582473  0.75839272  0.86196772    -0.15800
C1163       C  0.58551322  0.74562198  0.87506611     0.03200
C1164       C  0.59100130  0.71971133  0.86917206    -0.11100
C1165       C  0.57671753  0.70720118  0.85003441    -0.01100
C1166       C  0.55683424  0.71987113  0.83724277    -0.06300
H1167       H  0.56186171  0.77837089  0.86634713     0.06200
H1168       H  0.58056534  0.68723972  0.84547329     0.09600
Br1169     Br  0.50368765  0.76190894  0.87929942    -0.06000
Br1170     Br  0.51841794  0.78359321  0.75434549    -0.02900
Br1171     Br  0.60491225  0.76497265  0.89976013    -0.00100
Br1172     Br  0.53713733  0.70076503  0.81260225    -0.04500
C1173       C  0.38194124  0.86113341  0.72536036    -0.11800
C1174       C  0.38233700  0.88832337  0.72474037     0.03600
C1175       C  0.36516062  0.90160748  0.70892110    -0.12400
C1176       C  0.34743875  0.88836368  0.69362101     0.18500
C1177       C  0.34708055  0.86131670  0.69405170    -0.09400
C1178       C  0.36428290  0.84794003  0.70978815    -0.02400
H1179       H  0.36583320  0.92241775  0.70827105     0.05000
C1180       C  0.32998929  0.90316360  0.67684202     0.20500
H1181       H  0.36374720  0.82712116  0.70994122     0.10200
C1182       C  0.33313926  0.90168664  0.65014486    -0.15800
C1183       C  0.31700748  0.91550779  0.63369313     0.03200
C1184       C  0.29753728  0.93127863  0.64397998    -0.11100
C1185       C  0.29476984  0.93326083  0.67067808    -0.01100
C1186       C  0.31072802  0.91919869  0.68713615    -0.06300
H1187       H  0.34826557  0.88981254  0.64211994     0.06200
H1188       H  0.27981663  0.94534432  0.67871023     0.09600
Br1189     Br  0.32307280  0.84184927  0.67396305    -0.06000
Br1190     Br  0.40683734  0.90864702  0.74340209    -0.02900
Br1191     Br  0.32319761  0.91329063  0.59743088    -0.00100
Br1192     Br  0.30486376  0.92166800  0.72343212    -0.04500
C1193       C  0.65734594  0.65307967  0.86857189    -0.11800
C1194       C  0.68368941  0.64844478  0.87312002     0.03600
C1195       C  0.69651838  0.62953129  0.85901250    -0.12400
C1196       C  0.68340436  0.61477085  0.84070133     0.18500
C1197       C  0.65688427  0.61875893  0.83683050    -0.09400
C1198       C  0.64423309  0.63816256  0.85034631    -0.02400
H1199       H  0.71685807  0.62632883  0.86229278     0.05000
C1200       C  0.69758818  0.59471143  0.82659362     0.20500
H1201       H  0.62383489  0.64109048  0.84716490     0.10200
C1202       C  0.70867141  0.57434284  0.84039432    -0.15800
C1203       C  0.72192505  0.55469719  0.82774235     0.03200
C1204       C  0.72372370  0.55509533  0.80073947    -0.11100
C1205       C  0.71304123  0.57576465  0.78703367    -0.01100
C1206       C  0.70054542  0.59577643  0.79975348    -0.06300
H1207       H  0.70678410  0.57362972  0.86109674     0.06200
H1208       H  0.71497034  0.57667519  0.76633799     0.09600
Br1209     Br  0.63669800  0.59717836  0.81472078    -0.06000
Br1210     Br  0.70342125  0.66790521  0.89743956    -0.02900
Br1211     Br  0.73598841  0.52742258  0.84828952    -0.00100
Br1212     Br  0.68926938  0.62472874  0.77975653    -0.04500
C1213       C  0.79666024  0.44937813  0.71576576    -0.11800
C1214       C  0.79313557  0.44807431  0.68886061     0.03600
C1215       C  0.80651652  0.42966590  0.67463746    -0.12400
C1216       C  0.82357304  0.41271647  0.68671161     0.18500
C1217       C  0.82765651  0.41435619  0.71329366    -0.09400
C1218       C  0.81420621  0.43256892  0.72762602    -0.02400
H1219       H  0.80376574  0.42864225  0.65404710     0.05000
C1220       C  0.83706370  0.39339601  0.67128825     0.20500
H1221       H  0.81728030  0.43336179  0.74817512     0.10200
C1222       C  0.86269449  0.39770782  0.66446251    -0.15800
C1223       C  0.87648494  0.37930040  0.65065805     0.03200
C1224       C  0.86446366  0.35586069  0.64374467    -0.11100
C1225       C  0.83846101  0.35205013  0.65014442    -0.01100
C1226       C  0.82475656  0.37062421  0.66377532    -0.06300
H1227       H  0.87198612  0.41552282  0.66993693     0.06200
H1228       H  0.82881138  0.33435989  0.64497112     0.09600
Br1229     Br  0.85105054  0.39177106  0.73079915    -0.06000
Br1230     Br  0.77176181  0.47160412  0.66996635    -0.02900
Br1231     Br  0.91099163  0.38844088  0.64097761    -0.00100
Br1232     Br  0.78952022  0.36386139  0.67240966    -0.04500
C1233       C  0.72035103  0.44554083  0.79581821    -0.11800
C1234       C  0.69496926  0.44974748  0.80425623     0.03600
C1235       C  0.68231031  0.43069050  0.81828949    -0.12400
C1236       C  0.69440418  0.40716431  0.82372459     0.18500
C1237       C  0.71941405  0.40254977  0.81435160    -0.09400
C1238       C  0.73239927  0.42193945  0.80100222    -0.02400
H1239       H  0.66295668  0.43428111  0.82514549     0.05000
C1240       C  0.68002416  0.38757815  0.83841356     0.20500
H1241       H  0.75175665  0.41838980  0.79413609     0.10200
C1242       C  0.65715670  0.37794124  0.82802347    -0.15800
C1243       C  0.64190291  0.36064084  0.84172876     0.03200
C1244       C  0.64984125  0.35214998  0.86636267    -0.11100
C1245       C  0.67273151  0.36206541  0.87678171    -0.01100
C1246       C  0.68761278  0.37984098  0.86320168    -0.06300
H1247       H  0.65083621  0.38441111  0.80926645     0.06200
H1248       H  0.67901991  0.35618897  0.89572833     0.09600
Br1249     Br  0.73595220  0.36970504  0.81790388    -0.06000
Br1250     Br  0.67725363  0.48162942  0.79834713    -0.02900
Br1251     Br  0.60960941  0.35155949  0.82615979    -0.00100
Br1252     Br  0.71710078  0.39420946  0.88008222    -0.04500
C1253       C  0.79877543  0.55705748  0.72318455    -0.11800
C1254       C  0.81921073  0.57085008  0.73478767     0.03600
C1255       C  0.83288636  0.58905539  0.72049522    -0.12400
C1256       C  0.82646777  0.59411721  0.69490132     0.18500
C1257       C  0.80592852  0.58088814  0.68343029    -0.09400
C1258       C  0.79226772  0.56261465  0.69754089    -0.02400
H1259       H  0.84865501  0.59933723  0.72937215     0.05000
C1260       C  0.84209920  0.61247141  0.68007871     0.20500
H1261       H  0.77678525  0.55236548  0.68815561     0.10200
C1262       C  0.86594195  0.60445432  0.67048305    -0.15800
C1263       C  0.88065887  0.62063105  0.65486503     0.03200
C1264       C  0.87147913  0.64555581  0.64876499    -0.11100
C1265       C  0.84783515  0.65367174  0.65916092    -0.01100
C1266       C  0.83319450  0.63739944  0.67469318    -0.06300
H1267       H  0.87278862  0.58518803  0.67459285     0.06200
H1268       H  0.84059927  0.67277548  0.65515400     0.09600
Br1269     Br  0.79645367  0.58650923  0.64825256    -0.06000
Br1270     Br  0.82935435  0.56668364  0.77003712    -0.02900
Br1271     Br  0.91188184  0.60638632  0.64113944    -0.00100
Br1272     Br  0.80111764  0.64987891  0.68804816    -0.04500
loop_ 
_geom_bond_atom_site_label_1 
_geom_bond_atom_site_label_2 
_geom_bond_distance 
_geom_bond_site_symmetry_2 
_ccdc_geom_bond_type 
O1            V9   1.897       .  S
O1           C11   1.265       .  A
O2            V9   1.900       .  S
O2           C12   1.264       .  A
O3            V9   1.888       .  S
O3           C13   1.262       .  A
O4            V9   1.890       .  S
O4           C14   1.262       .  A
O5           V10   1.893       .  S
O5           C14   1.264       .  A
O6           V10   1.897       .  S
O6           C13   1.263       .  A
O7           V10   1.896       .  S
O7           C12   1.263       .  A
O8           V10   1.895       .  S
O8           C11   1.263       .  A
V9           V10   2.086       .  T
C11        C1253   1.483       .  S
C12        C1233   1.469       .  S
C13        C1204   1.469       .  S
C14        C1213   1.473       .  S
O15          V23   1.894       .  S
O15          C25   1.263       .  A
O16          V23   1.897       .  S
O16          C26   1.264       .  A
O17          V23   1.891       .  S
O17          C27   1.263       .  A
O18          V23   1.893       .  S
O18          C28   1.263       .  A
O19          V24   1.903       .  S
O19          C28   1.265       .  A
O20          V24   1.901       .  S
O20          C27   1.264       .  A
O21          V24   1.894       .  S
O21          C26   1.263       .  A
O22          V24   1.895       .  S
O22          C25   1.263       .  A
V23          V24   2.086       .  T
C25        C1153   1.466       .  S
C26        C1173   1.476       .  S
C27        C1133   1.482       .  S
C28        C1113   1.476       .  S
O29          V37   1.902       .  S
O29          C39   1.266       .  A
O30          V37   1.898       .  S
O30          C40   1.265       .  A
O31          V37   1.901       .  S
O31          C41   1.265       .  A
O32          V37   1.900       .  S
O32          C42   1.265       .  A
O33          V38   1.896       .  S
O33          C42   1.263       .  A
O34          V38   1.897       .  S
O34          C41   1.263       .  A
O35          V38   1.897       .  S
O35          C40   1.263       .  A
O36          V38   1.894       .  S
O36          C39   1.262       .  A
V37          V38   2.085       .  T
C39        C1053   1.487       .  S
C40        C1033   1.480       .  S
C41        C1093   1.476       .  S
C42        C1073   1.478       .  S
C43        C1024   1.494       .  S
C43          N44   1.361       .  A
C43          N48   1.361       .  A
N44          C45   1.360       .  A
C45          C53   1.470   1_565  S
C45          N46   1.357       .  A
N46          C47   1.356       .  A
C47         C993   1.480       .  S
C47          N48   1.358       .  A
C49         C953   1.481       .  S
C49          N50   1.358       .  A
C49          N54   1.357       .  A
N50          C51   1.358       .  A
C51         C973   1.474       .  S
C51          N52   1.360       .  A
N52          C53   1.359       .  A
C53          N54   1.358       .  A
O55          V63   1.892       .  S
O55          C65   1.262       .  A
O56          V63   1.893       .  S
O56          C66   1.263       .  A
O57          V63   1.894       .  S
O57          C67   1.262       .  A
O58          V63   1.895       .  S
O58          C68   1.263       .  A
O59          V64   1.902       .  S
O59          C68   1.265       .  A
O60          V64   1.901       .  S
O60          C67   1.266       .  A
O61          V64   1.900       .  S
O61          C66   1.264       .  A
O62          V64   1.900       .  S
O62          C65   1.265       .  A
V63          V64   2.086       .  T
C65         C893   1.472       .  S
C66         C944   1.473       .  S
C67         C924   1.487       .  S
C68         C984   1.473       .  S
C69         C873   1.479       .  S
C69          N70   1.359       .  A
C69          N74   1.354       .  A
N70          C71   1.359       .  A
C71        C1044   1.485       .  S
C71          N72   1.360       .  A
N72          C73   1.357       .  A
C73          C79   1.463   1_565  S
C73          N74   1.354       .  A
C75         C933   1.465       .  S
C75          N76   1.357       .  A
C75          N80   1.354       .  A
N76          C77   1.360       .  A
C77         C864   1.478       .  S
C77          N78   1.359       .  A
N78          C79   1.355       .  A
C79          N80   1.355       .  A
O81          V89   1.900       .  S
O81          C91   1.264       .  A
O82          V89   1.900       .  S
O82          C92   1.264       .  A
O83          V89   1.899       .  S
O83          C93   1.264       .  A
O84          V89   1.895       .  S
O84          C94   1.263       .  A
O85          V90   1.897       .  S
O85          C94   1.264       .  A
O86          V90   1.899       .  S
O86          C93   1.265       .  A
O87          V90   1.895       .  S
O87          C92   1.264       .  A
O88          V90   1.897       .  S
O88          C91   1.264       .  A
V89          V90   2.086       .  T
C91         C813   1.477       .  S
C92         C853   1.482       .  S
C93         C833   1.480       .  S
C94         C793   1.474       .  S
C95        C1084   1.493       .  S
C95          N96   1.360       .  A
C95         N100   1.358       .  A
N96          C97   1.357       .  A
C97        C1144   1.470       .  S
C97          N98   1.355       .  A
N98          C99   1.355       .  A
C99         C105   1.465   1_565  S
C99         N100   1.357       .  A
C101        C773   1.487       .  S
C101        N102   1.360       .  A
C101        N106   1.357       .  A
N102        C103   1.358       .  A
C103        C844   1.476       .  S
C103        N104   1.357       .  A
N104        C105   1.356       .  A
C105        N106   1.357       .  A
C107       C1184   1.468       .  S
C107        N108   1.357       .  A
C107        N112   1.357       .  A
N108        C109   1.358       .  A
C109        C117   1.464   1_565  S
C109        N110   1.356       .  A
N110        C111   1.356       .  A
C111        C753   1.473       .  S
C111        N112   1.357       .  A
C113        C713   1.475       .  S
C113        N114   1.358       .  A
C113        N118   1.357       .  A
N114        C115   1.359       .  A
C115        C733   1.479       .  S
C115        N116   1.358       .  A
N116        C117   1.356       .  A
C117        N118   1.357       .  A
O119        V127   1.897       .  S
O119        C129   1.263       .  A
O120        V127   1.898       .  S
O120        C130   1.265       .  A
O121        V127   1.895       .  S
O121        C131   1.262       .  A
O122        V127   1.894       .  S
O122        C132   1.263       .  A
O123        V128   1.895       .  S
O123        C132   1.264       .  A
O124        V128   1.893       .  S
O124        C131   1.264       .  A
O125        V128   1.899       .  S
O125        C130   1.263       .  A
O126        V128   1.897       .  S
O126        C129   1.265       .  A
V127        V128   2.085       .  T
C129        C784   1.480       .  S
C130        C704   1.483       .  S
C131        C744   1.479       .  S
C132        C673   1.476       .  S
O133        V141   1.903       .  S
O133        C143   1.265       .  A
O134        V141   1.903       .  S
O134        C144   1.265       .  A
O135        V141   1.903       .  S
O135        C145   1.265       .  A
O136        V141   1.903       .  S
O136        C146   1.266       .  A
O137        V142   1.892       .  S
O137        C146   1.262       .  A
O138        V142   1.892       .  S
O138        C145   1.264       .  A
O139        V142   1.898       .  S
O139        C144   1.264       .  A
O140        V142   1.897       .  S
O140        C143   1.263       .  A
V141        V142   2.085       .  T
C143        C653   1.472       .  S
C144        C724   1.477       .  S
C145        C644   1.478       .  S
C146        C964   1.480       .  S
C147       C1244   1.483       .  S
C147        N148   1.355       .  A
C147        N152   1.360       .  A
N148        C149   1.354       .  A
C149        C684   1.469       .  S
C149        N150   1.355       .  A
N150        C151   1.356       .  A
C151        C157   1.464       .  S
C151        N152   1.359       .  A
C153        C913   1.476   1_556  S
C153        N154   1.357   1_556  A
C153        N158   1.357       .  A
N154        C155   1.360   1_554  A
C155        C613   1.486   1_556  S
C155        N156   1.356       .  A
N156        C157   1.356       .  A
C157        N158   1.356       .  A
O159        V167   1.899       .  S
O159        C169   1.264       .  A
O160        V167   1.902       .  S
O160        C170   1.266       .  A
O161        V167   1.891       .  S
O161        C171   1.261       .  A
O162        V167   1.890       .  S
O162        C172   1.263       .  A
O163        V168   1.898       .  S
O163        C172   1.263       .  A
O164        V168   1.897       .  S
O164        C171   1.264       .  A
O165        V168   1.893       .  S
O165        C170   1.262       .  A
O166        V168   1.896       .  S
O166        C169   1.265       .  A
V167        V168   2.085       .  T
C169        C573   1.485       .  S
C170        C604   1.485       .  S
C171        C564   1.467       .  S
C172        C624   1.479       .  S
C173       C1193   1.471       .  S
C173        N174   1.356       .  A
C173        N178   1.356       .  A
N174        C175   1.356       .  A
C175       C1164   1.470       .  S
C175        N176   1.356       .  A
N176        C177   1.356       .  A
C177        C183   1.461       .  S
C177        N178   1.357       .  A
C179        C533   1.483   1_556  S
C179        N180   1.362   1_556  A
C179        N184   1.357       .  A
N180        C181   1.362   1_554  A
C181        C593   1.475   1_556  S
C181        N182   1.355       .  A
N182        C183   1.353       .  A
C183        N184   1.355       .  A
C185       C1124   1.480       .  S
C185        N186   1.361       .  A
C185        N190   1.355       .  A
N186        C187   1.362       .  A
C187        C524   1.489       .  S
C187        N188   1.360       .  A
N188        C189   1.359       .  A
C189        C193   1.468       .  S
C189        N190   1.354       .  A
C191        C473   1.485   1_556  S
C191        N192   1.357       .  A
C191        N196   1.359   1_556  A
N192        C193   1.356       .  A
C193        N194   1.359       .  A
N194        C195   1.359       .  A
C195        C493   1.486   1_556  S
C195        N196   1.356   1_556  A
O197        V205   1.902       .  S
O197        C207   1.265       .  A
O198        V205   1.900       .  S
O198        C208   1.264       .  A
O199        V205   1.903       .  S
O199        C209   1.267       .  A
O200        V205   1.904       .  S
O200        C210   1.266       .  A
O201        V206   1.899       .  S
O201        C210   1.264       .  A
O202        V206   1.899       .  S
O202        C209   1.263       .  A
O203        V206   1.889       .  S
O203        C208   1.262       .  A
O204        V206   1.894       .  S
O204        C207   1.262       .  A
V205        V206   2.084       .  T
C207        C504   1.476       .  S
C208        C884   1.471       .  S
C209        C544   1.491       .  S
C210       C1013   1.486       .  S
C211        C693   1.482       .  S
C211        N212   1.360       .  A
C211        N216   1.358       .  A
N212        C213   1.358       .  A
C213        C221   1.464       .  S
C213        N214   1.355       .  A
N214        C215   1.354       .  A
C215        C464   1.482       .  S
C215        N216   1.359       .  A
C217        C444   1.480   1_556  S
C217        N218   1.360   1_556  A
C217        N222   1.356       .  A
N218        C219   1.360   1_554  A
C219        C904   1.470   1_556  S
C219        N220   1.357       .  A
N220        C221   1.355       .  A
C221        N222   1.357       .  A
C223       C1224   1.477       .  S
C223        N224   1.358       .  A
C223        N228   1.354       .  A
N224        C225   1.357       .  A
C225        C824   1.477       .  S
C225        N226   1.360       .  A
N226        C227   1.360       .  A
C227        C233   1.466       .  S
C227        N228   1.353       .  A
C229        C633   1.493       .  S
C229        N230   1.359       .  A
C229        N234   1.358       .  A
N230        C231   1.359       .  A
C231        C413   1.477       .  S
C231        N232   1.358       .  A
N232        C233   1.360       .  A
C233        N234   1.354       .  A
O235        V243   1.905       .  S
O235        C245   1.265       .  A
O236        V243   1.902       .  S
O236        C246   1.266       .  A
O237        V243   1.897       .  S
O237        C247   1.263       .  A
O238        V243   1.899       .  S
O238        C248   1.265       .  A
O239        V244   1.897       .  S
O239        C248   1.263       .  A
O240        V244   1.898       .  S
O240        C247   1.263       .  A
O241        V244   1.905       .  S
O241        C246   1.265       .  A
O242        V244   1.903       .  S
O242        C245   1.266       .  A
V243        V244   2.085       .  T
C245        C424   1.491       .  S
C246        C513   1.489       .  S
C247        C453   1.465       .  S
C248        C404   1.481       .  S
C249       C1264   1.483       .  S
C249        N250   1.359       .  A
C249        N254   1.358       .  A
N250        C251   1.358       .  A
C251       C1064   1.486       .  S
C251        N252   1.360       .  A
N252        C253   1.358       .  A
C253        C259   1.470       .  S
C253        N254   1.358       .  A
C255        C373   1.471   1_655  S
C255        N256   1.357   1_655  A
C255        N260   1.359       .  A
N256        C257   1.357   1_455  A
C257        C393   1.484   1_655  S
C257        N258   1.359       .  A
N258        C259   1.358       .  A
C259        N260   1.359       .  A
O261        V269   1.892       .  S
O261        C271   1.262       .  A
O262        V269   1.894       .  S
O262        C272   1.262       .  A
O263        V269   1.898       .  S
O263        C273   1.265       .  A
O264        V269   1.896       .  S
O264        C274   1.263       .  A
O265        V270   1.903       .  S
O265        C274   1.266       .  A
O266        V270   1.904       .  S
O266        C273   1.265       .  A
O267        V270   1.899       .  S
O267        C272   1.265       .  A
O268        V270   1.900       .  S
O268        C271   1.265       .  A
V269        V270   2.084       .  T
C271        C353   1.482       .  S
C272        C764   1.481       .  S
C273        C384   1.485       .  S
C274       C1004   1.487       .  S
C275       C1104   1.478       .  S
C275        N276   1.358       .  A
C275        N280   1.357       .  A
N276        C277   1.360       .  A
C277        C283   1.465       .  S
C277        N278   1.356       .  A
N278        C279   1.356       .  A
C279        C553   1.464       .  S
C279        N280   1.357       .  A
C281        C344   1.473   1_655  S
C281        N282   1.358       .  A
C281        N286   1.359       .  A
N282        C283   1.359       .  A
C283        N284   1.354       .  A
N284        C285   1.354       .  A
C285        C364   1.485       .  S
C285        N286   1.362       .  A
C287        C804   1.483       .  S
C287        N288   1.361       .  A
C287        N292   1.358       .  A
N288        C289   1.359       .  A
C289        C295   1.469       .  S
C289        N290   1.358       .  A
N290        C291   1.356       .  A
C291        C584   1.471       .  S
C291        N292   1.356       .  A
C293        C313   1.476       .  S
C293        N294   1.356       .  A
C293        N298   1.358       .  A
N294        C295   1.356       .  A
C295        N296   1.359       .  A
N296        C297   1.361       .  A
C297        C664   1.480       .  S
C297        N298   1.360       .  A
O299        V307   1.897       .  S
O299        C309   1.263       .  A
O300        V307   1.893       .  S
O300        C310   1.263       .  A
O301        V307   1.902       .  S
O301        C311   1.266       .  A
O302        V307   1.897       .  S
O302        C312   1.265       .  A
O303        V308   1.903       .  S
O303        C312   1.265       .  A
O304        V308   1.902       .  S
O304        C311   1.265       .  A
O305        V308   1.899       .  S
O305        C310   1.263       .  A
O306        V308   1.900       .  S
O306        C309   1.265       .  A
V307        V308   2.084       .  T
C309        C324   1.486       .  S
C310        C484   1.468       .  S
C311        C333   1.489       .  S
C312        C433   1.485       .  S
C313        C314   1.411       .  A
C313        C318   1.404   1_655  A
C314        C315   1.396   1_655  A
C314       Br330   1.917       .  S
C315        C316   1.401       .  A
C315        H319   1.084       .  S
C316        C320   1.479       .  S
C316        C317   1.409       .  A
C317        C318   1.401       .  A
C317       Br329   1.918       .  S
C318        H321   1.083       .  S
C320        C322   1.401       .  A
C320        C326   1.406       .  A
C322        C323   1.399       .  A
C322        H327   1.083       .  S
C323        C324   1.418       .  A
C323       Br331   1.922       .  S
C324        C325   1.408       .  A
C325        C326   1.398       .  A
C325        H328   1.083       .  S
C326       Br332   1.919   1_455  S
C333        C334   1.416       .  A
C333        C338   1.409       .  A
C334        C335   1.400       .  A
C334       Br350   1.921       .  S
C335        C336   1.402       .  A
C335        H339   1.084       .  S
C336        C340   1.483       .  S
C336        C337   1.407       .  A
C337        C338   1.400       .  A
C337       Br349   1.919       .  S
C338        H341   1.083       .  S
C340        C342   1.404       .  A
C340        C346   1.410       .  A
C342        C343   1.400       .  A
C342        H347   1.084       .  S
C343        C344   1.408       .  A
C343       Br351   1.919       .  S
C344        C345   1.401       .  A
C345        C346   1.400       .  A
C345        H348   1.084   1_455  S
C346       Br352   1.918       .  S
C353        C354   1.416       .  A
C353        C358   1.408       .  A
C354        C355   1.395       .  A
C354       Br370   1.923       .  S
C355        C356   1.400       .  A
C355        H359   1.083       .  S
C356        C360   1.478       .  S
C356        C357   1.407       .  A
C357        C358   1.399       .  A
C357       Br369   1.919       .  S
C358        H361   1.083       .  S
C360        C362   1.400   1_455  A
C360        C366   1.407       .  A
C362        C363   1.398       .  A
C362        H367   1.084       .  S
C363        C364   1.421       .  A
C363       Br371   1.924       .  S
C364        C365   1.406   1_655  A
C365        C366   1.395       .  A
C365        H368   1.083       .  S
C366       Br372   1.920       .  S
C373        C374   1.408       .  A
C373        C378   1.402       .  A
C374        C375   1.400       .  A
C374       Br390   1.919   1_455  S
C375        C376   1.404       .  A
C375        H379   1.084       .  S
C376        C380   1.481       .  S
C376        C377   1.409       .  A
C377        C378   1.399       .  A
C377       Br389   1.919       .  S
C378        H381   1.084       .  S
C380        C382   1.402       .  A
C380        C386   1.408       .  A
C382        C383   1.401       .  A
C382        H387   1.083       .  S
C383        C384   1.416       .  A
C383       Br391   1.921       .  S
C384        C385   1.407       .  A
C385        C386   1.399       .  A
C385        H388   1.083       .  S
C386       Br392   1.920       .  S
C393        C394   1.417       .  A
C393        C398   1.408   1_455  A
C394        C395   1.399       .  A
C394       Br410   1.922       .  S
C395        C396   1.399       .  A
C395        H399   1.084       .  S
C396        C400   1.474       .  S
C396        C397   1.404       .  A
C397        C398   1.398   1_455  A
C397       Br409   1.918   1_455  S
C398        H401   1.083       .  S
C400        C402   1.399       .  A
C400        C406   1.405       .  A
C402        C403   1.398       .  A
C402        H407   1.084       .  S
C403        C404   1.415       .  A
C403       Br411   1.920       .  S
C404        C405   1.407       .  A
C405        C406   1.398       .  A
C405        H408   1.084       .  S
C406       Br412   1.918       .  S
C413        C414   1.409   1_655  A
C413        C418   1.403       .  A
C414        C415   1.402       .  A
C414       Br430   1.918       .  S
C415        C416   1.404       .  A
C415        H419   1.084       .  S
C416        C420   1.485       .  S
C416        C417   1.410       .  A
C417        C418   1.401   1_455  A
C417       Br429   1.919       .  S
C418        H421   1.084       .  S
C420        C422   1.402       .  A
C420        C426   1.407       .  A
C422        C423   1.403       .  A
C422        H427   1.083       .  S
C423        C424   1.418       .  A
C423       Br431   1.921       .  S
C424        C425   1.409       .  A
C425        C426   1.401       .  A
C425        H428   1.083       .  S
C426       Br432   1.919       .  S
C433        C434   1.417       .  A
C433        C438   1.408       .  A
C434        C435   1.402       .  A
C434       Br450   1.921       .  S
C435        C436   1.401       .  A
C435        H439   1.083       .  S
C436        C440   1.476       .  S
C436        C437   1.404       .  A
C437        C438   1.397       .  A
C437       Br449   1.919       .  S
C438        H441   1.083       .  S
C440        C442   1.400       .  A
C440        C446   1.406       .  A
C442        C443   1.399   1_554  A
C442        H447   1.083   1_554  S
C443        C444   1.415   1_556  A
C443       Br451   1.922       .  S
C444        C445   1.405       .  A
C445        C446   1.399       .  A
C445        H448   1.083       .  S
C446       Br452   1.918       .  S
C453        C454   1.407       .  A
C453        C458   1.401       .  A
C454        C455   1.397       .  A
C454       Br470   1.919       .  S
C455        C456   1.403       .  A
C455        H459   1.083       .  S
C456        C460   1.474       .  S
C456        C457   1.408       .  A
C457        C458   1.398       .  A
C457       Br469   1.919       .  S
C458        H461   1.084       .  S
C460        C462   1.400       .  A
C460        C466   1.405       .  A
C462        C463   1.398       .  A
C462        H467   1.084       .  S
C463        C464   1.417       .  A
C463       Br471   1.922       .  S
C464        C465   1.407       .  A
C465        C466   1.396       .  A
C465        H468   1.083       .  S
C466       Br472   1.919       .  S
C473        C474   1.418   1_554  A
C473        C478   1.407       .  A
C474        C475   1.399   1_556  A
C474       Br490   1.922       .  S
C475        C476   1.401       .  A
C475        H479   1.084       .  S
C476        C480   1.477       .  S
C476        C477   1.406       .  A
C477        C478   1.394       .  A
C477       Br489   1.921       .  S
C478        H481   1.083       .  S
C480        C482   1.403       .  A
C480        C486   1.409       .  A
C482        C483   1.394       .  A
C482        H487   1.084       .  S
C483        C484   1.408       .  A
C483       Br491   1.921       .  S
C484        C485   1.403       .  A
C485        C486   1.400       .  A
C485        H488   1.084       .  S
C486       Br492   1.919       .  S
C493        C494   1.418       .  A
C493        C498   1.408   1_554  A
C494        C495   1.399       .  A
C494       Br510   1.922       .  S
C495        C496   1.399       .  A
C495        H499   1.084       .  S
C496        C500   1.476       .  S
C496        C497   1.405       .  A
C497        C498   1.398   1_554  A
C497       Br509   1.919   1_554  S
C498        H501   1.084       .  S
C500        C502   1.401       .  A
C500        C506   1.407       .  A
C502        C503   1.399       .  A
C502        H507   1.083       .  S
C503        C504   1.413       .  A
C503       Br511   1.921       .  S
C504        C505   1.404       .  A
C505        C506   1.398       .  A
C505        H508   1.083       .  S
C506       Br512   1.919       .  S
C513        C514   1.417       .  A
C513        C518   1.408       .  A
C514        C515   1.403       .  A
C514       Br530   1.919       .  S
C515        C516   1.401       .  A
C515        H519   1.083       .  S
C516        C520   1.480       .  S
C516        C517   1.405       .  A
C517        C518   1.399       .  A
C517       Br529   1.919       .  S
C518        H521   1.083       .  S
C520        C522   1.400       .  A
C520        C526   1.406       .  A
C522        C523   1.401       .  A
C522        H527   1.083       .  S
C523        C524   1.417       .  A
C523       Br531   1.921       .  S
C524        C525   1.408       .  A
C525        C526   1.401       .  A
C525        H528   1.083       .  S
C526       Br532   1.918       .  S
C533        C534   1.417   1_554  A
C533        C538   1.406       .  A
C534        C535   1.397   1_556  A
C534       Br550   1.923       .  S
C535        C536   1.400       .  A
C535        H539   1.084   1_554  S
C536        C540   1.480       .  S
C536        C537   1.408       .  A
C537        C538   1.401       .  A
C537       Br549   1.918       .  S
C538        H541   1.084       .  S
C540        C542   1.400       .  A
C540        C546   1.406       .  A
C542        C543   1.400       .  A
C542        H547   1.084       .  S
C543        C544   1.419       .  A
C543       Br551   1.922       .  S
C544        C545   1.409       .  A
C545        C546   1.399       .  A
C545        H548   1.083       .  S
C546       Br552   1.919       .  S
C553        C554   1.408       .  A
C553        C558   1.401       .  A
C554        C555   1.399       .  A
C554       Br570   1.919       .  S
C555        C556   1.402       .  A
C555        H559   1.083       .  S
C556        C560   1.468       .  S
C556        C557   1.405       .  A
C557        C558   1.393       .  A
C557       Br569   1.919       .  S
C558        H561   1.083       .  S
C560        C562   1.400       .  A
C560        C566   1.406       .  A
C562        C563   1.397       .  A
C562        H567   1.084       .  S
C563        C564   1.411       .  A
C563       Br571   1.921       .  S
C564        C565   1.402       .  A
C565        C566   1.395       .  A
C565        H568   1.084       .  S
C566       Br572   1.919       .  S
C573        C574   1.418       .  A
C573        C578   1.409       .  A
C574        C575   1.400       .  A
C574       Br590   1.922       .  S
C575        C576   1.399       .  A
C575        H579   1.084       .  S
C576        C580   1.473       .  S
C576        C577   1.403       .  A
C577        C578   1.397       .  A
C577       Br589   1.919       .  S
C578        H581   1.083       .  S
C580        C582   1.401       .  A
C580        C586   1.406       .  A
C582        C583   1.398       .  A
C582        H587   1.083       .  S
C583        C584   1.409       .  A
C583       Br591   1.917       .  S
C584        C585   1.403       .  A
C585        C586   1.399       .  A
C585        H588   1.083       .  S
C586       Br592   1.918       .  S
C593        C594   1.410       .  A
C593        C598   1.406   1_554  A
C594        C595   1.400       .  A
C594       Br610   1.919       .  S
C595        C596   1.402       .  A
C595        H599   1.083       .  S
C596        C600   1.472       .  S
C596        C597   1.404       .  A
C597        C598   1.395   1_554  A
C597       Br609   1.919   1_554  S
C598        H601   1.084       .  S
C600        C602   1.398       .  A
C600        C606   1.404       .  A
C602        C603   1.397       .  A
C602        H607   1.084       .  S
C603        C604   1.418       .  A
C603       Br611   1.922       .  S
C604        C605   1.409       .  A
C605        C606   1.399       .  A
C605        H608   1.083       .  S
C606       Br612   1.918       .  S
C613        C614   1.420   1_554  A
C613        C618   1.409       .  A
C614        C615   1.397   1_556  A
C614       Br630   1.924       .  S
C615        C616   1.399       .  A
C615        H619   1.084   1_554  S
C616        C620   1.472       .  S
C616        C617   1.403       .  A
C617        C618   1.395       .  A
C617       Br629   1.919       .  S
C618        H621   1.083       .  S
C620        C622   1.401       .  A
C620        C626   1.404       .  A
C622        C623   1.398       .  A
C622        H627   1.083       .  S
C623        C624   1.415       .  A
C623       Br631   1.922       .  S
C624        C625   1.408       .  A
C625        C626   1.394       .  A
C625        H628   1.083       .  S
C626       Br632   1.919       .  S
C633        C634   1.420   1_655  A
C633        C638   1.413       .  A
C634        C635   1.398       .  A
C634       Br650   1.923       .  S
C635        C636   1.400       .  A
C635        H639   1.083       .  S
C636        C640   1.476       .  S
C636        C637   1.403   1_455  A
C637        C638   1.396       .  A
C637       Br649   1.920       .  S
C638        H641   1.082       .  S
C640        C642   1.402       .  A
C640        C646   1.406       .  A
C642        C643   1.401       .  A
C642        H647   1.083       .  S
C643        C644   1.414       .  A
C643       Br651   1.920       .  S
C644        C645   1.405       .  A
C645        C646   1.394       .  A
C645        H648   1.083       .  S
C646       Br652   1.920       .  S
C653        C654   1.409       .  A
C653        C658   1.402       .  A
C654        C655   1.401       .  A
C654       Br670   1.919       .  S
C655        C656   1.405       .  A
C655        H659   1.084       .  S
C656        C660   1.483       .  S
C656        C657   1.409       .  A
C657        C658   1.398       .  A
C657       Br669   1.919       .  S
C658        H661   1.084       .  S
C660        C662   1.402       .  A
C660        C666   1.409       .  A
C662        C663   1.398       .  A
C662        H667   1.083       .  S
C663        C664   1.413   1_455  A
C663       Br671   1.921       .  S
C664        C665   1.406       .  A
C665        C666   1.401   1_655  A
C665        H668   1.083       .  S
C666       Br672   1.919   1_455  S
C673        C674   1.415       .  A
C673        C678   1.406       .  A
C674        C675   1.395       .  A
C674       Br690   1.920       .  S
C675        C676   1.397       .  A
C675        H679   1.084       .  S
C676        C680   1.467       .  S
C676        C677   1.404       .  A
C677        C678   1.396       .  A
C677       Br689   1.919       .  S
C678        H681   1.083       .  S
C680        C682   1.400       .  A
C680        C686   1.404       .  A
C682        C683   1.397       .  A
C682        H687   1.083       .  S
C683        C684   1.411       .  A
C683       Br691   1.921       .  S
C684        C685   1.404       .  A
C685        C686   1.395       .  A
C685        H688   1.083       .  S
C686       Br692   1.919       .  S
C693        C694   1.416       .  A
C693        C698   1.406       .  A
C694        C695   1.400       .  A
C694       Br710   1.921       .  S
C695        C696   1.400       .  A
C695        H699   1.084       .  S
C696        C700   1.474       .  S
C696        C697   1.405       .  A
C697        C698   1.397       .  A
C697       Br709   1.919       .  S
C698        H701   1.084       .  S
C700        C702   1.400       .  A
C700        C706   1.403       .  A
C702        C703   1.400       .  A
C702        H707   1.081       .  S
C703        C704   1.417       .  A
C703       Br711   1.922       .  S
C704        C705   1.408       .  A
C705        C706   1.397       .  A
C705        H708   1.083       .  S
C706       Br712   1.918       .  S
C713        C714   1.411       .  A
C713        C718   1.403       .  A
C714        C715   1.399       .  A
C714       Br730   1.920       .  S
C715        C716   1.402       .  A
C715        H719   1.083       .  S
C716        C720   1.480       .  S
C716        C717   1.409       .  A
C717        C718   1.399       .  A
C717       Br729   1.919       .  S
C718        H721   1.084       .  S
C720        C722   1.402       .  A
C720        C726   1.409       .  A
C722        C723   1.399       .  A
C722        H727   1.083       .  S
C723        C724   1.411       .  A
C723       Br731   1.920       .  S
C724        C725   1.405       .  A
C725        C726   1.400       .  A
C725        H728   1.083       .  S
C726       Br732   1.920       .  S
C733        C734   1.415       .  A
C733        C738   1.408       .  A
C734        C735   1.396       .  A
C734       Br750   1.921       .  S
C735        C736   1.399       .  A
C735        H739   1.084       .  S
C736        C740   1.468       .  S
C736        C737   1.403       .  A
C737        C738   1.397       .  A
C737       Br749   1.919       .  S
C738        H741   1.083       .  S
C740        C742   1.399       .  A
C740        C746   1.402       .  A
C742        C743   1.399       .  A
C742        H747   1.084       .  S
C743        C744   1.416       .  A
C743       Br751   1.922       .  S
C744        C745   1.407       .  A
C745        C746   1.394       .  A
C745        H748   1.083       .  S
C746       Br752   1.919       .  S
C753        C754   1.412       .  A
C753        C758   1.404       .  A
C754        C755   1.397       .  A
C754       Br770   1.921       .  S
C755        C756   1.400       .  A
C755        H759   1.083       .  S
C756        C760   1.470       .  S
C756        C757   1.405       .  A
C757        C758   1.397       .  A
C757       Br769   1.918       .  S
C758        H761   1.083       .  S
C760        C762   1.398       .  A
C760        C766   1.404       .  A
C762        C763   1.398       .  A
C762        H767   1.084       .  S
C763        C764   1.417       .  A
C763       Br771   1.922       .  S
C764        C765   1.407       .  A
C765        C766   1.397       .  A
C765        H768   1.083       .  S
C766       Br772   1.918       .  S
C773        C774   1.420       .  A
C773        C778   1.408       .  A
C774        C775   1.399       .  A
C774       Br790   1.923       .  S
C775        C776   1.399       .  A
C775        H779   1.084       .  S
C776        C780   1.474       .  S
C776        C777   1.404       .  A
C777        C778   1.396       .  A
C777       Br789   1.919       .  S
C778        H781   1.083       .  S
C780        C782   1.400       .  A
C780        C786   1.406       .  A
C782        C783   1.399       .  A
C782        H787   1.084       .  S
C783        C784   1.416       .  A
C783       Br791   1.919       .  S
C784        C785   1.406       .  A
C785        C786   1.395       .  A
C785        H788   1.083       .  S
C786       Br792   1.920       .  S
C793        C794   1.412       .  A
C793        C798   1.405       .  A
C794        C795   1.398       .  A
C794       Br810   1.921       .  S
C795        C796   1.400       .  A
C795        H799   1.083       .  S
C796        C800   1.471       .  S
C796        C797   1.404       .  A
C797        C798   1.396       .  A
C797       Br809   1.918       .  S
C798        H801   1.083       .  S
C800        C802   1.398       .  A
C800        C806   1.403       .  A
C802        C803   1.398       .  A
C802        H807   1.084       .  S
C803        C804   1.417       .  A
C803       Br811   1.922       .  S
C804        C805   1.408       .  A
C805        C806   1.398       .  A
C805        H808   1.083       .  S
C806       Br812   1.918       .  S
C813        C814   1.413       .  A
C813        C818   1.405       .  A
C814        C815   1.399       .  A
C814       Br830   1.921       .  S
C815        C816   1.401       .  A
C815        H819   1.083       .  S
C816        C820   1.475       .  S
C816        C817   1.406       .  A
C817        C818   1.399       .  A
C817       Br829   1.918       .  S
C818        H821   1.083       .  S
C820        C822   1.400       .  A
C820        C826   1.407       .  A
C822        C823   1.399       .  A
C822        H827   1.084       .  S
C823        C824   1.413       .  A
C823       Br831   1.920       .  S
C824        C825   1.404       .  A
C825        C826   1.399       .  A
C825        H828   1.083       .  S
C826       Br832   1.918       .  S
C833        C834   1.415       .  A
C833        C838   1.406       .  A
C834        C835   1.399       .  A
C834       Br850   1.920       .  S
C835        C836   1.400       .  A
C835        H839   1.084       .  S
C836        C840   1.474       .  S
C836        C837   1.405       .  A
C837        C838   1.398       .  A
C837       Br849   1.919       .  S
C838        H841   1.083       .  S
C840        C842   1.400       .  A
C840        C846   1.406       .  A
C842        C843   1.398       .  A
C842        H847   1.083       .  S
C843        C844   1.413       .  A
C843       Br851   1.921       .  S
C844        C845   1.405       .  A
C845        C846   1.398       .  A
C845        H848   1.083       .  S
C846       Br852   1.918       .  S
C853        C854   1.415       .  A
C853        C858   1.408       .  A
C854        C855   1.398       .  A
C854       Br870   1.920       .  S
C855        C856   1.400       .  A
C855        H859   1.084       .  S
C856        C860   1.471       .  S
C856        C857   1.403       .  A
C857        C858   1.397       .  A
C857       Br869   1.918       .  S
C858        H861   1.084       .  S
C860        C862   1.401       .  A
C860        C866   1.404       .  A
C862        C863   1.401       .  A
C862        H867   1.083       .  S
C863        C864   1.413       .  A
C863       Br871   1.920       .  S
C864        C865   1.405       .  A
C865        C866   1.394       .  A
C865        H868   1.083       .  S
C866       Br872   1.919       .  S
C873        C874   1.417       .  A
C873        C878   1.405       .  A
C874        C875   1.397       .  A
C874       Br890   1.921       .  S
C875        C876   1.398       .  A
C875        H879   1.084       .  S
C876        C880   1.468       .  S
C876        C877   1.403       .  A
C877        C878   1.395       .  A
C877       Br889   1.918       .  S
C878        H881   1.081       .  S
C880        C882   1.401       .  A
C880        C886   1.403       .  A
C882        C883   1.399       .  A
C882        H887   1.084       .  S
C883        C884   1.412       .  A
C883       Br891   1.920       .  S
C884        C885   1.404       .  A
C885        C886   1.393       .  A
C885        H888   1.084       .  S
C886       Br892   1.919       .  S
C893        C894   1.412       .  A
C893        C898   1.404       .  A
C894        C895   1.397       .  A
C894       Br910   1.920       .  S
C895        C896   1.400       .  A
C895        H899   1.084       .  S
C896        C900   1.473       .  S
C896        C897   1.407       .  A
C897        C898   1.398       .  A
C897       Br909   1.919   1_554  S
C898        H901   1.084       .  S
C900        C902   1.402       .  A
C900        C906   1.407       .  A
C902        C903   1.399       .  A
C902        H907   1.083       .  S
C903        C904   1.409       .  A
C903       Br911   1.919       .  S
C904        C905   1.402       .  A
C905        C906   1.397       .  A
C905        H908   1.083   1_554  S
C906       Br912   1.919       .  S
C913        C914   1.412       .  A
C913        C918   1.404   1_554  A
C914        C915   1.399       .  A
C914       Br930   1.920       .  S
C915        C916   1.402       .  A
C915        H919   1.083       .  S
C916        C920   1.475       .  S
C916        C917   1.407       .  A
C917        C918   1.396   1_554  A
C917       Br929   1.920   1_554  S
C918        H921   1.083       .  S
C920        C922   1.398       .  A
C920        C926   1.405       .  A
C922        C923   1.398       .  A
C922        H927   1.083       .  S
C923        C924   1.420       .  A
C923       Br931   1.923       .  S
C924        C925   1.409       .  A
C925        C926   1.398       .  A
C925        H928   1.083       .  S
C926       Br932   1.920       .  S
C933        C934   1.408       .  A
C933        C938   1.400       .  A
C934        C935   1.396       .  A
C934       Br950   1.919       .  S
C935        C936   1.402       .  A
C935        H939   1.083       .  S
C936        C940   1.477       .  S
C936        C937   1.410       .  A
C937        C938   1.399       .  A
C937       Br949   1.919       .  S
C938        H941   1.083       .  S
C940        C942   1.401       .  A
C940        C946   1.409       .  A
C942        C943   1.395       .  A
C942        H947   1.084       .  S
C943        C944   1.411       .  A
C943       Br951   1.921       .  S
C944        C945   1.404       .  A
C945        C946   1.400       .  A
C945        H948   1.084       .  S
C946       Br952   1.919       .  S
C953        C954   1.416       .  A
C953        C958   1.407       .  A
C954        C955   1.398       .  A
C954       Br970   1.922       .  S
C955        C956   1.399       .  A
C955        H959   1.084       .  S
C956        C960   1.473       .  S
C956        C957   1.404       .  A
C957        C958   1.399       .  A
C957       Br969   1.918       .  S
C958        H961   1.083       .  S
C960        C962   1.399       .  A
C960        C966   1.405       .  A
C962        C963   1.398       .  A
C962        H967   1.084       .  S
C963        C964   1.416       .  A
C963       Br971   1.922       .  S
C964        C965   1.406       .  A
C965        C966   1.398       .  A
C965        H968   1.083       .  S
C966       Br972   1.918       .  S
C973        C974   1.411       .  A
C973        C978   1.404       .  A
C974        C975   1.398       .  A
C974       Br990   1.920       .  S
C975        C976   1.403       .  A
C975        H979   1.083       .  S
C976        C980   1.479       .  S
C976        C977   1.408       .  A
C977        C978   1.399       .  A
C977       Br989   1.918       .  S
C978        H981   1.083       .  S
C980        C982   1.404       .  A
C980        C986   1.408       .  A
C982        C983   1.398       .  A
C982        H987   1.084       .  S
C983        C984   1.409       .  A
C983       Br991   1.919       .  S
C984        C985   1.404       .  A
C985        C986   1.398       .  A
C985        H988   1.083       .  S
C986       Br992   1.919       .  S
C993        C994   1.413       .  A
C993        C998   1.406       .  A
C994        C995   1.400       .  A
C994      Br1010   1.920       .  S
C995        C996   1.401       .  A
C995        H999   1.084       .  S
C996       C1000   1.476       .  S
C996        C997   1.406       .  A
C997        C998   1.398       .  A
C997      Br1009   1.919       .  S
C998       H1001   1.083       .  S
C1000      C1002   1.399       .  A
C1000      C1006   1.405       .  A
C1002      C1003   1.399       .  A
C1002      H1007   1.084       .  S
C1003      C1004   1.419       .  A
C1003     Br1011   1.922       .  S
C1004      C1005   1.409       .  A
C1005      C1006   1.400       .  A
C1005      H1008   1.083       .  S
C1006     Br1012   1.918       .  S
C1013      C1014   1.417       .  A
C1013      C1018   1.408       .  A
C1014      C1015   1.400       .  A
C1014     Br1030   1.922       .  S
C1015      C1016   1.400       .  A
C1015      H1019   1.083       .  S
C1016      C1020   1.480       .  S
C1016      C1017   1.406       .  A
C1017      C1018   1.401       .  A
C1017     Br1029   1.918       .  S
C1018      H1021   1.083       .  S
C1020      C1022   1.401       .  A
C1020      C1026   1.404       .  A
C1022      C1023   1.403       .  A
C1022      H1027   1.084       .  S
C1023      C1024   1.420       .  A
C1023     Br1031   1.922       .  S
C1024      C1025   1.410       .  A
C1025      C1026   1.398       .  A
C1025      H1028   1.082       .  S
C1026     Br1032   1.919       .  S
C1033      C1034   1.416       .  A
C1033      C1038   1.406       .  A
C1034      C1035   1.399       .  A
C1034     Br1050   1.921       .  S
C1035      C1036   1.400       .  A
C1035      H1039   1.083       .  S
C1036      C1040   1.474       .  S
C1036      C1037   1.405       .  A
C1037      C1038   1.397       .  A
C1037     Br1049   1.919       .  S
C1038      H1041   1.083       .  S
C1040      C1042   1.399       .  A
C1040      C1046   1.404       .  A
C1042      C1043   1.398       .  A
C1042      H1047   1.084       .  S
C1043      C1044   1.417       .  A
C1043     Br1051   1.920       .  S
C1044      C1045   1.408       .  A
C1045      C1046   1.397       .  A
C1045      H1048   1.083       .  S
C1046     Br1052   1.919       .  S
C1053      C1054   1.419       .  A
C1053      C1058   1.409       .  A
C1054      C1055   1.397       .  A
C1054     Br1070   1.922       .  S
C1055      C1056   1.398       .  A
C1055      H1059   1.083       .  S
C1056      C1060   1.476       .  S
C1056      C1057   1.405       .  A
C1057      C1058   1.399       .  A
C1057     Br1069   1.919       .  S
C1058      H1061   1.083       .  S
C1060      C1062   1.400       .  A
C1060      C1066   1.405       .  A
C1062      C1063   1.400       .  A
C1062      H1067   1.084       .  S
C1063      C1064   1.418       .  A
C1063     Br1071   1.920       .  S
C1064      C1065   1.407       .  A
C1065      C1066   1.396       .  A
C1065      H1068   1.083       .  S
C1066     Br1072   1.919       .  S
C1073      C1074   1.414       .  A
C1073      C1078   1.405       .  A
C1074      C1075   1.397       .  A
C1074     Br1090   1.921       .  S
C1075      C1076   1.400       .  A
C1075      H1079   1.083       .  S
C1076      C1080   1.476       .  S
C1076      C1077   1.408       .  A
C1077      C1078   1.398       .  A
C1077     Br1089   1.920       .  S
C1078      H1081   1.083       .  S
C1080      C1082   1.398       .  A
C1080      C1086   1.404       .  A
C1082      C1083   1.398       .  A
C1082      H1087   1.084       .  S
C1083      C1084   1.422       .  A
C1083     Br1091   1.922       .  S
C1084      C1085   1.411       .  A
C1085      C1086   1.397       .  A
C1085      H1088   1.083       .  S
C1086     Br1092   1.920       .  S
C1093      C1094   1.411       .  A
C1093      C1098   1.404       .  A
C1094      C1095   1.399       .  A
C1094     Br1110   1.920       .  S
C1095      C1096   1.403       .  A
C1095      H1099   1.084       .  S
C1096      C1100   1.482       .  S
C1096      C1097   1.410       .  A
C1097      C1098   1.399       .  A
C1097     Br1109   1.920       .  S
C1098      H1101   1.084       .  S
C1100      C1102   1.402       .  A
C1100      C1106   1.410       .  A
C1102      C1103   1.398       .  A
C1102      H1107   1.084       .  S
C1103      C1104   1.413       .  A
C1103     Br1111   1.920       .  S
C1104      C1105   1.404       .  A
C1105      C1106   1.400       .  A
C1105      H1108   1.083       .  S
C1106     Br1112   1.919       .  S
C1113      C1114   1.413       .  A
C1113      C1118   1.405       .  A
C1114      C1115   1.396       .  A
C1114     Br1130   1.921       .  S
C1115      C1116   1.400       .  A
C1115      H1119   1.083       .  S
C1116      C1120   1.475       .  S
C1116      C1117   1.407       .  A
C1117      C1118   1.400       .  A
C1117     Br1129   1.918       .  S
C1118      H1121   1.083       .  S
C1120      C1122   1.400       .  A
C1120      C1126   1.406       .  A
C1122      C1123   1.398       .  A
C1122      H1127   1.084       .  S
C1123      C1124   1.415       .  A
C1123     Br1131   1.922       .  S
C1124      C1125   1.406       .  A
C1125      C1126   1.399       .  A
C1125      H1128   1.083       .  S
C1126     Br1132   1.918       .  S
C1133      C1134   1.416       .  A
C1133      C1138   1.408       .  A
C1134      C1135   1.397       .  A
C1134     Br1150   1.920       .  S
C1135      C1136   1.400       .  A
C1135      H1139   1.084       .  S
C1136      C1140   1.474       .  S
C1136      C1137   1.404       .  A
C1137      C1138   1.396       .  A
C1137     Br1149   1.919       .  S
C1138      H1141   1.083       .  S
C1140      C1142   1.402       .  A
C1140      C1146   1.407       .  A
C1142      C1143   1.398       .  A
C1142      H1147   1.084       .  S
C1143      C1144   1.409       .  A
C1143     Br1151   1.919       .  S
C1144      C1145   1.403       .  A
C1145      C1146   1.396       .  A
C1145      H1148   1.084       .  S
C1146     Br1152   1.920       .  S
C1153      C1154   1.409       .  A
C1153      C1158   1.402       .  A
C1154      C1155   1.395       .  A
C1154     Br1170   1.921       .  S
C1155      C1156   1.402       .  A
C1155      H1159   1.084       .  S
C1156      C1160   1.472       .  S
C1156      C1157   1.408       .  A
C1157      C1158   1.396       .  A
C1157     Br1169   1.920       .  S
C1158      H1161   1.083       .  S
C1160      C1162   1.402       .  A
C1160      C1166   1.407       .  A
C1162      C1163   1.397       .  A
C1162      H1167   1.083       .  S
C1163      C1164   1.411       .  A
C1163     Br1171   1.920       .  S
C1164      C1165   1.404       .  A
C1165      C1166   1.394       .  A
C1165      H1168   1.083       .  S
C1166     Br1172   1.920       .  S
C1173      C1174   1.414       .  A
C1173      C1178   1.405       .  A
C1174      C1175   1.397       .  A
C1174     Br1190   1.921       .  S
C1175      C1176   1.400       .  A
C1175      H1179   1.083       .  S
C1176      C1180   1.475       .  S
C1176      C1177   1.407       .  A
C1177      C1178   1.397       .  A
C1177     Br1189   1.919       .  S
C1178      H1181   1.083       .  S
C1180      C1182   1.402       .  A
C1180      C1186   1.408       .  A
C1182      C1183   1.397       .  A
C1182      H1187   1.083       .  S
C1183      C1184   1.408       .  A
C1183     Br1191   1.919       .  S
C1184      C1185   1.402       .  A
C1185      C1186   1.398       .  A
C1185      H1188   1.083       .  S
C1186     Br1192   1.919       .  S
C1193      C1194   1.410       .  A
C1193      C1198   1.404       .  A
C1194      C1195   1.397       .  A
C1194     Br1210   1.920       .  S
C1195      C1196   1.402       .  A
C1195      H1199   1.084       .  S
C1196      C1200   1.473       .  S
C1196      C1197   1.408       .  A
C1197      C1198   1.395       .  A
C1197     Br1209   1.921       .  S
C1198      H1201   1.084       .  S
C1200      C1202   1.403       .  A
C1200      C1206   1.407       .  A
C1202      C1203   1.397       .  A
C1202      H1207   1.083       .  S
C1203      C1204   1.410       .  A
C1203     Br1211   1.920       .  S
C1204      C1205   1.404       .  A
C1205      C1206   1.394       .  A
C1205      H1208   1.084       .  S
C1206     Br1212   1.921       .  S
C1213      C1214   1.415       .  A
C1213      C1218   1.405       .  A
C1214      C1215   1.396       .  A
C1214     Br1230   1.922       .  S
C1215      C1216   1.398       .  A
C1215      H1219   1.083       .  S
C1216      C1220   1.465       .  S
C1216      C1217   1.403       .  A
C1217      C1218   1.394       .  A
C1217     Br1229   1.919       .  S
C1218      H1221   1.083       .  S
C1220      C1222   1.397       .  A
C1220      C1226   1.403       .  A
C1222      C1223   1.395       .  A
C1222      H1227   1.084       .  S
C1223      C1224   1.417       .  A
C1223     Br1231   1.924       .  S
C1224      C1225   1.407       .  A
C1225      C1226   1.394       .  A
C1225      H1228   1.083       .  S
C1226     Br1232   1.919       .  S
C1233      C1234   1.408       .  A
C1233      C1238   1.403       .  A
C1234      C1235   1.397       .  A
C1234     Br1250   1.920       .  S
C1235      C1236   1.403       .  A
C1235      H1239   1.084       .  S
C1236      C1240   1.477       .  S
C1236      C1237   1.409       .  A
C1237      C1238   1.399       .  A
C1237     Br1249   1.920       .  S
C1238      H1241   1.084       .  S
C1240      C1242   1.400       .  A
C1240      C1246   1.408       .  A
C1242      C1243   1.396       .  A
C1242      H1247   1.084       .  S
C1243      C1244   1.418       .  A
C1243     Br1251   1.924       .  S
C1244      C1245   1.406       .  A
C1245      C1246   1.398       .  A
C1245      H1248   1.083       .  S
C1246     Br1252   1.920       .  S
C1253      C1254   1.418       .  A
C1253      C1258   1.407       .  A
C1254      C1255   1.399       .  A
C1254     Br1270   1.922       .  S
C1255      C1256   1.399       .  A
C1255      H1259   1.083       .  S
C1256      C1260   1.473       .  S
C1256      C1257   1.405       .  A
C1257      C1258   1.396       .  A
C1257     Br1269   1.919       .  S
C1258      H1261   1.083       .  S
C1260      C1262   1.399       .  A
C1260      C1266   1.404       .  A
C1262      C1263   1.399       .  A
C1262      H1267   1.084       .  S
C1263      C1264   1.416       .  A
C1263     Br1271   1.921       .  S
C1264      C1265   1.407       .  A
C1265      C1266   1.397       .  A
C1265      H1268   1.082       .  S
C1266     Br1272   1.919       .  S
