geometry optimzed in LAMMPS
_audit_creation_date              2020-12-01 
_audit_creation_method            'lammps2cif' 
_symmetry_space_group_name_H-M    'P1' 
_symmetry_Int_Tables_number       1 
_symmetry_cell_setting            triclinic 
loop_ 
_symmetry_equiv_pos_as_xyz 
  x,y,z 
_cell_length_a                    71.55939774 
_cell_length_b                    71.53463177823983 
_cell_length_c                    71.55734373088607 
_cell_angle_alpha                 89.95885782738729 
_cell_angle_beta                  89.91008481514967 
_cell_angle_gamma                 90.14777554628284 
loop_ 
_atom_site_label 
_atom_site_type_symbol 
_atom_site_fract_x 
_atom_site_fract_y 
_atom_site_fract_z 
_atom_site_charge 
O1          O  0.00085411  0.44572942  0.84697710    -0.73000
O2          O  0.05609715  0.44388544  0.83579786    -0.74000
O3          O  0.03212452  0.42837649  0.86359808    -0.62600
O4          O  0.02462760  0.46097430  0.81871098    -0.71000
O5          O  0.02883166  0.48639803  0.83590133    -0.70600
O6          O  0.03691978  0.45355608  0.88105608    -0.61800
O7          O  0.06033275  0.46930489  0.85310127    -0.74300
O8          O  0.00594772  0.47090480  0.86436713    -0.73100
Cu9        Cu  0.02828444  0.44389219  0.84058880     1.04600
Cu10       Cu  0.03317553  0.47094600  0.85915129     1.04300
C11         C  0.99489167  0.45843675  0.85802152     0.93200
C12         C  0.06689295  0.45624116  0.84292990     0.92300
C13         C  0.03552125  0.43579011  0.87945479     0.84500
C14         C  0.02537957  0.47875499  0.82011727     0.90700
O15         O  0.06356106  0.33681553  0.03126509    -0.73000
O16         O  0.09651024  0.38149186  0.03800738    -0.74000
O17         O  0.08290356  0.35315314  0.06190097    -0.62600
O18         O  0.07694312  0.36554578  0.00714397    -0.71000
O19         O  0.05158788  0.38198714  0.01416751    -0.70600
O20         O  0.05829222  0.37086333  0.06848020    -0.61800
O21         O  0.07160442  0.39886755  0.04363545    -0.74300
O22         O  0.03864663  0.35356094  0.03885109    -0.73100
Cu23       Cu  0.08083558  0.35861787  0.03431545     1.04600
Cu24       Cu  0.05416105  0.37690657  0.04149531     1.04300
C25         C  0.04602119  0.33794788  0.03433061     0.93200
C26         C  0.08931391  0.39733168  0.04181970     0.92300
C27         C  0.07160778  0.36029471  0.07375853     0.84500
C28         C  0.06323550  0.37583681  0.00215945     0.90700
O29         O  0.87320369  0.48812216  0.93621870    -0.73000
O30         O  0.83000630  0.50104727  0.96875837    -0.74000
O31         O  0.85994629  0.52169638  0.95195697    -0.62600
O32         O  0.84412523  0.46775646  0.95298288    -0.71000
O33         O  0.86101455  0.46314093  0.97857404    -0.70600
O34         O  0.87764087  0.51656997  0.97690432    -0.61800
O35         O  0.84714923  0.49688004  0.99419650    -0.74300
O36         O  0.89060605  0.48219693  0.96107287    -0.73100
Cu37       Cu  0.85118021  0.49492040  0.95169418     1.04600
Cu38       Cu  0.86970834  0.48966592  0.97864113     1.04300
C39         C  0.88845036  0.48231859  0.94331851     0.93200
C40         C  0.83143977  0.50059100  0.98652500     0.92300
C41         C  0.87174705  0.52745105  0.96405048     0.84500
C42         C  0.85055843  0.45686719  0.96558328     0.90700
O43         O  0.13275647  0.56514702  0.05683055    -0.73000
O44         O  0.17807372  0.55703342  0.02442250    -0.74000
O45         O  0.14852706  0.53439747  0.03736785    -0.62600
O46         O  0.16197172  0.58808696  0.04366128    -0.71000
O47         O  0.17961788  0.58094467  0.06801729    -0.70600
O48         O  0.16347555  0.52717866  0.06335383    -0.61800
O49         O  0.19402352  0.54880822  0.04974573    -0.74300
O50         O  0.14981928  0.55888323  0.08197838    -0.73100
Cu51       Cu  0.15480535  0.56143050  0.03965006     1.04600
Cu52       Cu  0.17239537  0.55371523  0.06660152     1.04300
C53         C  0.13428268  0.56331494  0.07454154     0.93200
C54         C  0.19308562  0.55125730  0.03213000     0.92300
C55         C  0.15317472  0.52231691  0.04960042     0.84500
C56         C  0.17267496  0.59315424  0.05697269     0.90700
O57         O  0.95573813  0.56133209  0.16892447    -0.73000
O58         O  0.00876024  0.56001315  0.15147281    -0.74000
O59         O  0.98927368  0.54603788  0.18332100    -0.62600
O60         O  0.97595211  0.57552058  0.13760514    -0.71000
O61         O  0.98052114  0.60165401  0.15336772    -0.70600
O62         O  0.99537756  0.57241536  0.19836082    -0.61800
O63         O  0.01474238  0.58683980  0.16585019    -0.74300
O64         O  0.96142792  0.58723389  0.18504158    -0.73100
Cu65       Cu  0.98223481  0.55977610  0.15991476     1.04600
Cu66       Cu  0.98826629  0.58791350  0.17628425     1.04300
C67         C  0.95015888  0.57442870  0.17965699     0.93200
C68         C  0.01969443  0.57373453  0.15472075     0.92300
C69         C  0.99406954  0.55462187  0.19822099     0.84500
C70         C  0.97673171  0.59334829  0.13807015     0.90700
O71         O  0.97977253  0.69985181  0.98918984    -0.73000
O72         O  0.95329651  0.65361190  0.97243446    -0.74000
O73         O  0.96218036  0.68841251  0.95581339    -0.62600
O74         O  0.97085325  0.66535778  0.00578340    -0.71000
O75         O  0.94465441  0.67735195  0.01619753    -0.70600
O76         O  0.93495226  0.69953498  0.96571556    -0.61800
O77         O  0.92658954  0.66481437  0.98336958    -0.74300
O78         O  0.95297959  0.71223040  0.99829702    -0.73100
Cu79       Cu  0.96743618  0.67642957  0.98048039     1.04600
Cu80       Cu  0.93885046  0.68890895  0.99130118     1.04300
C81         C  0.97060111  0.71364544  0.99571776     0.93200
C82         C  0.93583206  0.65167698  0.97557647     0.92300
C83         C  0.94712322  0.69745368  0.95282744     0.84500
C84         C  0.95924789  0.66754020  0.01908208     0.90700
O85         O  0.84507912  0.57008193  0.54955430    -0.73000
O86         O  0.86369992  0.51776233  0.54596652    -0.74000
O87         O  0.83099727  0.53669878  0.53411385    -0.62600
O88         O  0.87779896  0.55104060  0.56126935    -0.71000
O89         O  0.86441815  0.54349907  0.58825578    -0.70600
O90         O  0.81690262  0.53136805  0.56107617    -0.61800
O91         O  0.84933568  0.51068682  0.57260477    -0.74300
O92         O  0.83221086  0.56361258  0.57708405    -0.73100
Cu93       Cu  0.85483162  0.54409883  0.54676892     1.04600
Cu94       Cu  0.84019510  0.53698587  0.57568051     1.04300
C95         C  0.83579846  0.57512359  0.56393251     0.93200
C96         C  0.85989445  0.50613204  0.55895845     0.92300
C97         C  0.81622589  0.53263460  0.54327396     0.84500
C98         C  0.87864975  0.54912028  0.57899420     0.90700
O99         O  0.94566445  0.36346387  0.50066526    -0.73000
O100        O  0.94226090  0.34583148  0.55409498    -0.74000
O101        O  0.92896680  0.37679689  0.53355843    -0.62600
O102        O  0.95907381  0.33170657  0.52106449    -0.71000
O103        O  0.98516445  0.34736424  0.52678865    -0.70600
O104        O  0.95485756  0.39220027  0.54095437    -0.61800
O105        O  0.96863723  0.36099230  0.56040354    -0.74300
O106        O  0.97138717  0.37935151  0.50776176    -0.73100
Cu107      Cu  0.94315326  0.35379080  0.52704152     1.04600
Cu108      Cu  0.97098811  0.37039957  0.53415240     1.04300
C109        C  0.95855110  0.37505523  0.49617659     0.93200
C110        C  0.95464595  0.35126530  0.56576666     0.92300
C111        C  0.93709066  0.39159234  0.53932304     0.84500
C112        C  0.97686659  0.33223863  0.52214120     0.90700
O113        O  0.95121683  0.49063758  0.35224694    -0.73000
O114        O  0.00324818  0.49122102  0.37195208    -0.74000
O115        O  0.98588940  0.50502734  0.33927198    -0.62600
O116        O  0.96895233  0.47625879  0.38454490    -0.71000
O117        O  0.97565278  0.44984278  0.36977262    -0.70600
O118        O  0.99092901  0.47826889  0.32457786    -0.61800
O119        O  0.00979451  0.46485972  0.35696693    -0.74300
O120        O  0.95678247  0.46372852  0.33781026    -0.73100
Cu121      Cu  0.97713588  0.49173610  0.36248191     1.04600
Cu122      Cu  0.98351346  0.46325589  0.34673130     1.04300
C123        C  0.94567768  0.47701878  0.34217625     0.93200
C124        C  0.01467244  0.47821175  0.36781589     0.92300
C125        C  0.99074360  0.49608524  0.32459399     0.84500
C126        C  0.96997156  0.45841574  0.38431541     0.90700
O127        O  0.17687173  0.50427265  0.49099420    -0.73000
O128        O  0.13266100  0.49125110  0.45910253    -0.74000
O129        O  0.16479374  0.47211932  0.47191277    -0.62600
O130        O  0.14457334  0.52316682  0.47820698    -0.71000
O131        O  0.16084397  0.53278697  0.45353207    -0.70600
O132        O  0.17964183  0.48084520  0.44604262    -0.61800
O133        O  0.14787049  0.50127721  0.43397537    -0.74300
O134        O  0.19272523  0.51251727  0.46560247    -0.73100
Cu135      Cu  0.15425709  0.49739838  0.47596931     1.04600
Cu136      Cu  0.17089037  0.50721320  0.44893015     1.04300
C137        C  0.19194419  0.50996158  0.48325245     0.93200
C138        C  0.13308711  0.49467890  0.44157317     0.92300
C139        C  0.17506396  0.46826902  0.45786958     0.84500
C140        C  0.14899370  0.53587001  0.46651062     0.90700
O141        O  0.00289226  0.57462203  0.66242144    -0.73000
O142        O  0.05558549  0.57740820  0.68159809    -0.74000
O143        O  0.03653373  0.59050178  0.64942599    -0.62600
O144        O  0.02224079  0.56167883  0.69523273    -0.71000
O145        O  0.02828651  0.53512385  0.68063068    -0.70600
O146        O  0.04365667  0.56425337  0.63460394    -0.61800
O147        O  0.06217965  0.55076410  0.66711724    -0.74300
O148        O  0.00988223  0.54825159  0.64765271    -0.73100
Cu149      Cu  0.02902255  0.57691730  0.67271467     1.04600
Cu150      Cu  0.03618800  0.54861811  0.65704092     1.04300
C151        C  0.99834671  0.56129854  0.65141408     0.93200
C152        C  0.06718493  0.56459367  0.67720396     0.92300
C153        C  0.04221827  0.58208427  0.63476221     0.84500
C154        C  0.02355475  0.54388845  0.69548195     0.90700
O155        O  0.03771161  0.68052593  0.45722815    -0.73000
O156        O  0.03517281  0.66194622  0.51018241    -0.74000
O157        O  0.02255755  0.69493168  0.49103733    -0.62600
O158        O  0.05009329  0.64855580  0.47627994    -0.71000
O159        O  0.07676961  0.66270553  0.48333348    -0.70600
O160        O  0.04959949  0.70912333  0.49624488    -0.61800
O161        O  0.06182878  0.67651189  0.51659224    -0.74300
O162        O  0.06497092  0.69415630  0.46315617    -0.73100
Cu163      Cu  0.03534891  0.67111128  0.48355837     1.04600
Cu164      Cu  0.06413237  0.68623200  0.49014065     1.04300
C165        C  0.05214873  0.68947667  0.45164791     0.93200
C166        C  0.04862599  0.66540382  0.52139649     0.92300
C167        C  0.03181726  0.70965150  0.49516678     0.84500
C168        C  0.06787207  0.64835801  0.47762687     0.90700
O169        O  0.52848467  0.60137481  0.85782337    -0.73000
O170        O  0.51965859  0.56935074  0.81248119    -0.74000
O171        O  0.49758797  0.58149097  0.84335539    -0.62600
O172        O  0.55050196  0.58926953  0.82710122    -0.71000
O173        O  0.55888088  0.56386110  0.84282418    -0.70600
O174        O  0.50629698  0.55652628  0.85962916    -0.61800
O175        O  0.52778471  0.54415210  0.82858544    -0.74300
O176        O  0.53746553  0.57637788  0.87373622    -0.73100
Cu177      Cu  0.52373153  0.58621818  0.83459428     1.04600
Cu178      Cu  0.53287616  0.55932520  0.85172815     1.04300
C179        C  0.53438857  0.59396958  0.87295975     0.93200
C180        C  0.52254762  0.55174621  0.81329329     0.92300
C181        C  0.49374450  0.56805341  0.85447205     0.84500
C182        C  0.56302421  0.57777366  0.83244033     0.90700
O183        O  0.32731975  0.53854868  0.97189087    -0.73000
O184        O  0.37539734  0.54939541  0.94454831    -0.74000
O185        O  0.34502629  0.57076658  0.95735637    -0.62600
O186        O  0.35870721  0.51684317  0.95976074    -0.71000
O187        O  0.34546585  0.51129455  0.93226037    -0.70600
O188        O  0.32993665  0.56568207  0.93073376    -0.61800
O189        O  0.36066448  0.54433488  0.91780136    -0.74300
O190        O  0.31399655  0.53191611  0.94489039    -0.73100
Cu191      Cu  0.35206213  0.54396077  0.95939243     1.04600
Cu192      Cu  0.33693825  0.53811250  0.93053249     1.04300
C193        C  0.31282652  0.53386371  0.96252610     0.93200
C194        C  0.37543511  0.54872942  0.92668415     0.92300
C195        C  0.33558842  0.57682942  0.94356344     0.84500
C196        C  0.35507003  0.50578314  0.94625366     0.90700
O197        O  0.46810575  0.38472325  0.01205754    -0.73000
O198        O  0.46924565  0.36772156  0.95905730    -0.74000
O199        O  0.45265116  0.39789515  0.97793123    -0.62600
O200        O  0.48447525  0.35397077  0.99318008    -0.71000
O201        O  0.45892572  0.33706031  0.99706656    -0.70600
O202        O  0.42723321  0.38111407  0.98389155    -0.61800
O203        O  0.44323471  0.35137585  0.96388891    -0.74300
O204        O  0.44282265  0.36747861  0.01760972    -0.73100
Cu205      Cu  0.46955604  0.37663477  0.98547644     1.04600
Cu206      Cu  0.44221226  0.35862713  0.99088512     1.04300
C207        C  0.45526542  0.37907398  0.02308891     0.93200
C208        C  0.45603843  0.35740119  0.95296826     0.92300
C209        C  0.43484834  0.39622905  0.97816748     0.84500
C210        C  0.47672814  0.33829846  0.99699967     0.90700
O211        O  0.47312493  0.47874372  0.13103259    -0.73000
O212        O  0.48439621  0.51389694  0.17372632    -0.74000
O213        O  0.50571587  0.49670486  0.14493457    -0.62600
O214        O  0.45167267  0.49627505  0.15913944    -0.71000
O215        O  0.45638699  0.47177971  0.17758752    -0.70600
O216        O  0.51112486  0.47226264  0.16326318    -0.61800
O217        O  0.48920706  0.48922659  0.19187013    -0.74300
O218        O  0.47838653  0.45456381  0.14972546    -0.73100
Cu219      Cu  0.47857617  0.49729288  0.15160176     1.04600
Cu220      Cu  0.48397419  0.47116552  0.17132118     1.04300
C221        C  0.47388380  0.46107923  0.13377743     0.93200
C222        C  0.48861098  0.50691113  0.18963008     0.92300
C223        C  0.51690020  0.48452273  0.15155194     0.84500
C224        C  0.44535161  0.48365923  0.17007777     0.90700
O225        O  0.56035400  0.64413674  0.03561075    -0.73000
O226        O  0.53266184  0.69284699  0.02749623    -0.74000
O227        O  0.54267364  0.66137075  0.00451894    -0.62600
O228        O  0.55005652  0.67520182  0.05834663    -0.71000
O229        O  0.57708380  0.68867209  0.05111957    -0.70600
O230        O  0.56887215  0.67614821  0.99689440    -0.61800
O231        O  0.55943064  0.70696408  0.02135071    -0.74300
O232        O  0.58673070  0.65839698  0.02753535    -0.73100
Cu233      Cu  0.54547223  0.66789999  0.03164945     1.04600
Cu234      Cu  0.57390488  0.68302173  0.02385297     1.04300
C235        C  0.57805542  0.64377688  0.03307587     0.93200
C236        C  0.54182905  0.70788504  0.02419028     0.92300
C237        C  0.55478382  0.66613302  0.99226822     0.84500
C238        C  0.56468097  0.68422593  0.06320376     0.90700
O239        O  0.67566180  0.46766443  0.06150265    -0.73000
O240        O  0.65669445  0.51850252  0.04884737    -0.74000
O241        O  0.68999255  0.49806194  0.04045975    -0.62600
O242        O  0.64304146  0.48832017  0.07017567    -0.71000
O243        O  0.65651412  0.50018456  0.09536303    -0.70600
O244        O  0.70373210  0.50873104  0.06599268    -0.61800
O245        O  0.67032191  0.53030309  0.07409043    -0.74300
O246        O  0.68917551  0.47856254  0.08722492    -0.73100
Cu247      Cu  0.66597780  0.49278847  0.05435545     1.04600
Cu248      Cu  0.68051916  0.50490070  0.08152155     1.04300
C249        C  0.68511921  0.46496846  0.07634202     0.93200
C250        C  0.65964041  0.53218708  0.05987347     0.92300
C251        C  0.70460907  0.50433148  0.04878110     0.84500
C252        C  0.64218828  0.49317965  0.08737363     0.90700
O253        O  0.46245671  0.70540102  0.52550006    -0.73000
O254        O  0.42959507  0.66275170  0.54041932    -0.74000
O255        O  0.44640724  0.69304866  0.55946853    -0.62600
O256        O  0.44560139  0.67449091  0.50630017    -0.71000
O257        O  0.47074300  0.65743967  0.51236250    -0.70600
O258        O  0.47162519  0.67593261  0.56502119    -0.61800
O259        O  0.45471869  0.64552843  0.54624866    -0.74300
O260        O  0.48768906  0.68832578  0.53115612    -0.73100
Cu261      Cu  0.44517785  0.68459008  0.53265686     1.04600
Cu262      Cu  0.47210157  0.66625149  0.53882704     1.04300
C263        C  0.48019161  0.70385075  0.52658351     0.93200
C264        C  0.43698376  0.64739032  0.54559049     0.92300
C265        C  0.45896811  0.68712017  0.57068416     0.84500
C266        C  0.45779699  0.66248918  0.50119903     0.90700
O267        O  0.48902178  0.55071988  0.33141351    -0.73000
O268        O  0.47139316  0.57203136  0.38052977    -0.74000
O269        O  0.45425408  0.56150569  0.34652060    -0.62600
O270        O  0.50638067  0.56068796  0.36585907    -0.71000
O271        O  0.51166551  0.58905710  0.35436906    -0.70600
O272        O  0.45859407  0.59045529  0.33609609    -0.61800
O273        O  0.47706756  0.60047590  0.36956631    -0.74300
O274        O  0.49266391  0.57937720  0.32030693    -0.73100
Cu275      Cu  0.48020094  0.56021707  0.35644479     1.04600
Cu276      Cu  0.48525900  0.59082702  0.34469477     1.04300
C277        C  0.49257970  0.56172552  0.31775731     0.93200
C278        C  0.47141863  0.58977734  0.38270758     0.92300
C279        C  0.44812112  0.57614811  0.33846266     0.84500
C280        C  0.51715626  0.57472363  0.36350819     0.90700
O281        O  0.68982249  0.53567527  0.46581195    -0.73000
O282        O  0.64530804  0.54739655  0.43464535    -0.74000
O283        O  0.67678699  0.56756076  0.44690866    -0.62600
O284        O  0.65796911  0.51529444  0.45365094    -0.71000
O285        O  0.64225465  0.52422772  0.47891234    -0.70600
O286        O  0.66186088  0.57614011  0.47274551    -0.61800
O287        O  0.62993189  0.55677176  0.45989684    -0.74300
O288        O  0.67446867  0.54368513  0.49151393    -0.73100
Cu289      Cu  0.66803054  0.54111867  0.44941747     1.04600
Cu290      Cu  0.65159246  0.55046976  0.47670606     1.04300
C291        C  0.68938049  0.53802890  0.48348089     0.93200
C292        C  0.63069835  0.55422992  0.44222314     0.92300
C293        C  0.67209252  0.58011986  0.45866753     0.84500
C294        C  0.64686668  0.51164194  0.46716444     0.90700
O295        O  0.53438195  0.34109878  0.48550633    -0.73000
O296        O  0.56330811  0.38834369  0.47836028    -0.74000
O297        O  0.54924969  0.36040735  0.45451866    -0.62600
O298        O  0.54824853  0.36919764  0.50920827    -0.71000
O299        O  0.57433022  0.35285485  0.51301133    -0.70600
O300        O  0.57621934  0.34537512  0.45763331    -0.61800
O301        O  0.58972766  0.37289655  0.48286919    -0.74300
O302        O  0.56095849  0.32532913  0.48802168    -0.73100
Cu303      Cu  0.54786179  0.36527484  0.48179223     1.04600
Cu304      Cu  0.57625273  0.34851513  0.48545524     1.04300
C305        C  0.54313615  0.32574407  0.48777983     0.93200
C306        C  0.58108166  0.38819480  0.47989544     0.92300
C307        C  0.56302677  0.35167164  0.44741418     0.84500
C308        C  0.56103522  0.36264591  0.51971879     0.90700
O309        O  0.56000263  0.46163637  0.67032210    -0.73000
O310        O  0.51027886  0.46919400  0.64684430    -0.74000
O311        O  0.52791707  0.48177523  0.68025625    -0.62600
O312        O  0.54231726  0.44847356  0.63752330    -0.71000
O313        O  0.53093245  0.42405326  0.65282641    -0.70600
O314        O  0.51677384  0.45749919  0.69539565    -0.61800
O315        O  0.49874626  0.44469964  0.66205331    -0.74300
O316        O  0.54939599  0.43711782  0.68608229    -0.73100
Cu317      Cu  0.53547371  0.46609032  0.65821869     1.04600
Cu318      Cu  0.52356940  0.43996362  0.67465050     1.04300
C319        C  0.56262535  0.44853940  0.68210226     0.93200
C320        C  0.49676533  0.45808139  0.65035958     0.92300
C321        C  0.52036945  0.47494254  0.69494726     0.84500
C322        C  0.53853754  0.43101232  0.63824920     0.90700
O323        O  0.34979302  0.52675518  0.57719480    -0.73000
O324        O  0.33396261  0.47305812  0.57479658    -0.74000
O325        O  0.36577426  0.49245882  0.58818705    -0.62600
O326        O  0.31771259  0.50700390  0.56354774    -0.71000
O327        O  0.33165645  0.50557266  0.53602330    -0.70600
O328        O  0.37888338  0.48826083  0.56047105    -0.61800
O329        O  0.34668537  0.47042524  0.54656727    -0.74300
O330        O  0.36409369  0.52335883  0.54980628    -0.73100
Cu331      Cu  0.34129167  0.49998558  0.57689183     1.04600
Cu332      Cu  0.35574904  0.49688545  0.54722459     1.04300
C333        C  0.35994637  0.53327044  0.56402228     0.93200
C334        C  0.33800221  0.46328351  0.56043394     0.92300
C335        C  0.37983297  0.48764436  0.57828034     0.84500
C336        C  0.31696465  0.50832316  0.54576522     0.90700
O337        O  0.54268933  0.86276803  0.56148662    -0.73000
O338        O  0.54627557  0.87519065  0.50737543    -0.74000
O339        O  0.53204790  0.84484675  0.52800723    -0.62600
O340        O  0.55731944  0.89347947  0.54084366    -0.71000
O341        O  0.58497772  0.87972033  0.53814788    -0.70600
O342        O  0.55947719  0.83076093  0.52858376    -0.61800
O343        O  0.57337118  0.86024502  0.50536205    -0.74300
O344        O  0.57099762  0.85080939  0.56071434    -0.73100
Cu345      Cu  0.54364079  0.86956473  0.53443951     1.04600
Cu346      Cu  0.57316929  0.85485979  0.53307718     1.04300
C347        C  0.55637380  0.85522770  0.56995511     0.93200
C348        C  0.56014352  0.86949217  0.49774848     0.92300
C349        C  0.54173691  0.82993599  0.52682054     0.84500
C350        C  0.57516262  0.89418732  0.54159527     0.90700
O351        O  0.49703638  0.94651624  0.35285913    -0.73000
O352        O  0.54957084  0.94301322  0.33266824    -0.74000
O353        O  0.53044247  0.92917649  0.36454887    -0.62600
O354        O  0.51616525  0.96017527  0.32051820    -0.71000
O355        O  0.52325585  0.98603371  0.33610032    -0.70600
O356        O  0.53880195  0.95482695  0.37979575    -0.61800
O357        O  0.55683101  0.96907746  0.34793391    -0.74300
O358        O  0.50517398  0.97212577  0.36844230    -0.73100
Cu359      Cu  0.52296332  0.94384231  0.34204237     1.04600
Cu360      Cu  0.53122006  0.97143337  0.35856476     1.04300
C361        C  0.49307929  0.95970841  0.36423859     0.93200
C362        C  0.56150462  0.95543831  0.33748041     0.92300
C363        C  0.53704480  0.93705834  0.37910678     0.84500
C364        C  0.51781097  0.97792856  0.32116986     0.90700
O365        O  0.44477261  0.17613357  0.52264068    -0.73000
O366        O  0.43631345  0.18505000  0.46795741    -0.74000
O367        O  0.42653296  0.15668267  0.49390758    -0.62600
O368        O  0.45477129  0.20476243  0.49655247    -0.71000
O369        O  0.48104586  0.18940278  0.49133286    -0.70600
O370        O  0.45250077  0.14192438  0.48583435    -0.61800
O371        O  0.46306734  0.17077472  0.46134128    -0.74300
O372        O  0.47049856  0.16027158  0.51555861    -0.73100
Cu373      Cu  0.43968721  0.18124620  0.49552414     1.04600
Cu374      Cu  0.46772169  0.16512726  0.48831620     1.04300
C375        C  0.45868446  0.16613134  0.52754636     0.93200
C376        C  0.44834993  0.17931224  0.45608934     0.92300
C377        C  0.43499329  0.14171577  0.48922414     0.84500
C378        C  0.47246596  0.20472159  0.49432777     0.90700
O379        O  0.32352915  0.99789362  0.47347786    -0.73000
O380        O  0.36632214  0.98492723  0.43999061    -0.74000
O381        O  0.33489525  0.96523212  0.45372281    -0.62600
O382        O  0.35542706  0.01711723  0.45979662    -0.71000
O383        O  0.37196422  0.00737948  0.48419024    -0.70600
O384        O  0.35075098  0.95651024  0.47893250    -0.61800
O385        O  0.38243991  0.97499684  0.46448131    -0.74300
O386        O  0.33982257  0.98950206  0.49839521    -0.73100
Cu387      Cu  0.34437524  0.99161648  0.45592571     1.04600
Cu388      Cu  0.36173045  0.98175051  0.48239299     1.04300
C389        C  0.32493074  0.99620163  0.49118862     0.93200
C390        C  0.38119159  0.97796566  0.44689198     0.92300
C391        C  0.34023583  0.95257504  0.46512115     0.84500
C392        C  0.36724623  0.02020787  0.47280489     0.90700
O393        O  0.49747453  0.08016387  0.70936307    -0.73000
O394        O  0.49092256  0.10739046  0.66138522    -0.74000
O395        O  0.46719632  0.09849958  0.69176186    -0.62600
O396        O  0.52120456  0.08814942  0.67782178    -0.71000
O397        O  0.51183543  0.06165177  0.66520732    -0.70600
O398        O  0.45929410  0.07184175  0.67794026    -0.61800
O399        O  0.48231947  0.08110349  0.64733858    -0.74300
O400        O  0.48923187  0.05353706  0.69607193    -0.73100
Cu401      Cu  0.49458118  0.09446203  0.68563494     1.04600
Cu402      Cu  0.48542796  0.06613032  0.67120038     1.04300
C403        C  0.49424199  0.06267199  0.71057868     0.93200
C404        C  0.48520955  0.09877871  0.64690573     0.92300
C405        C  0.45475540  0.08669483  0.68657269     0.84500
C406        C  0.52488499  0.07313341  0.66878077     0.90700
O407        O  0.68754479  0.03775231  0.55069566    -0.73000
O408        O  0.64459480  0.05336819  0.58359068    -0.74000
O409        O  0.67979609  0.06868036  0.57336639    -0.62600
O410        O  0.65159321  0.02247096  0.56023823    -0.71000
O411        O  0.66395953  0.00789153  0.58466776    -0.70600
O412        O  0.69395646  0.05429924  0.59690775    -0.61800
O413        O  0.65871382  0.03982298  0.60754657    -0.74300
O414        O  0.69984207  0.02228330  0.57451353    -0.73100
Cu415      Cu  0.66543038  0.04602959  0.56610013     1.04600
Cu416      Cu  0.67955276  0.03049637  0.59171812     1.04300
C417        C  0.70085296  0.02811268  0.55770576     0.93200
C418        C  0.64498295  0.04898468  0.60091921     0.92300
C419        C  0.69141102  0.06886211  0.58685963     0.84500
C420        C  0.65283887  0.00807587  0.57067006     0.90700
O421        O  0.45709719  0.89520715  0.05325513    -0.73000
O422        O  0.48855272  0.85038217  0.03940018    -0.74000
O423        O  0.47431025  0.88278971  0.02014325    -0.62600
O424        O  0.47161241  0.86352587  0.07222685    -0.71000
O425        O  0.44521633  0.84873562  0.06547267    -0.70600
O426        O  0.44890499  0.86662796  0.01255054    -0.61800
O427        O  0.46250561  0.83480425  0.03296667    -0.74300
O428        O  0.43159691  0.87958641  0.04509826    -0.73100
Cu429      Cu  0.47385205  0.87349406  0.04644626     1.04600
Cu430      Cu  0.44623759  0.85681640  0.03872815     1.04300
C431        C  0.43936544  0.89451442  0.05098759     0.93200
C432        C  0.48025506  0.83521605  0.03474458     0.92300
C433        C  0.46161746  0.87850282  0.00838131     0.84500
C434        C  0.45786061  0.85332287  0.07719881     0.90700
O435        O  0.36436468  0.04749717  0.09203835    -0.73000
O436        O  0.31947688  0.03717593  0.06043761    -0.74000
O437        O  0.35030003  0.01540973  0.07401408    -0.62600
O438        O  0.33419363  0.06902484  0.07840320    -0.71000
O439        O  0.35001425  0.07565572  0.05248419    -0.70600
O440        O  0.36706948  0.02277920  0.04892456    -0.61800
O441        O  0.33585243  0.04328231  0.03483283    -0.74300
O442        O  0.38054118  0.05536107  0.06678228    -0.73100
Cu443      Cu  0.34145405  0.04194663  0.07705524     1.04600
Cu444      Cu  0.35888577  0.04943220  0.04981622     1.04300
C445        C  0.37947564  0.05332186  0.08450910     0.93200
C446        C  0.32034371  0.03909914  0.04271755     0.92300
C447        C  0.36190184  0.01088619  0.06119394     0.84500
C448        C  0.33986612  0.08079980  0.06620194     0.90700
O449        O  0.49184662  0.98481750  0.83714789    -0.73000
O450        O  0.47795038  0.95445371  0.88199879    -0.74000
O451        O  0.45876209  0.96789697  0.85032785    -0.62600
O452        O  0.51133230  0.97088345  0.86927315    -0.71000
O453        O  0.50392592  0.99650890  0.88516160    -0.70600
O454        O  0.45166471  0.99416905  0.86523403    -0.61800
O455        O  0.46985933  0.98014975  0.89718236    -0.74300
O456        O  0.48549193  0.01077257  0.85278306    -0.73100
Cu457      Cu  0.48529061  0.96867477  0.85908395     1.04600
Cu458      Cu  0.47757831  0.99637575  0.87556941     1.04300
C459        C  0.49039324  0.00260246  0.83769142     0.93200
C460        C  0.47150046  0.96238852  0.89662780     0.92300
C461        C  0.44688641  0.98032952  0.85502984     0.84500
C462        C  0.51559501  0.98370916  0.88091648     0.90700
O463        O  0.55395663  0.08121664  0.18959352    -0.73000
O464        O  0.50054743  0.08098605  0.17276719    -0.74000
O465        O  0.52063480  0.06397268  0.20256118    -0.62600
O466        O  0.53399035  0.09763031  0.15979226    -0.71000
O467        O  0.54066162  0.07275077  0.14259500    -0.70600
O468        O  0.52524818  0.03928138  0.18460631    -0.61800
O469        O  0.50654635  0.05650405  0.15464418    -0.74300
O470        O  0.55967082  0.05589542  0.17261607    -0.73100
Cu471      Cu  0.52706275  0.08177625  0.18186098     1.04600
Cu472      Cu  0.53321495  0.05520324  0.16305441     1.04300
C473        C  0.56531200  0.06890748  0.18348528     0.93200
C474        C  0.49528500  0.06892417  0.16073033     0.92300
C475        C  0.52056806  0.04625161  0.20032086     0.84500
C476        C  0.53963869  0.09046084  0.14444499     0.90700
O477        O  0.58802765  0.16530720  0.99592822    -0.73000
O478        O  0.56046327  0.21327496  0.00379076    -0.74000
O479        O  0.57230470  0.18291928  0.02741347    -0.62600
O480        O  0.57613225  0.19455633  0.97239040    -0.71000
O481        O  0.54897523  0.18031930  0.96780040    -0.70600
O482        O  0.54558166  0.16809602  0.02198879    -0.61800
O483        O  0.53346681  0.19871205  0.99907440    -0.74300
O484        O  0.56130235  0.15044211  0.99057889    -0.73100
Cu485      Cu  0.57510414  0.18963847  0.00012935     1.04600
Cu486      Cu  0.54634207  0.17397778  0.99477120     1.04300
C487        C  0.57912943  0.15037979  0.99186812     0.93200
C488        C  0.54270178  0.21373194  0.00216531     0.92300
C489        C  0.55876561  0.17266004  0.03307965     0.84500
C490        C  0.56330017  0.18879301  0.96136145     0.90700
O491        O  0.66285346  0.02669765  0.96377842    -0.73000
O492        O  0.67671193  0.97246898  0.96026340    -0.74000
O493        O  0.64573932  0.99430962  0.94963540    -0.62600
O494        O  0.69449280  0.00482948  0.97481682    -0.71000
O495        O  0.68125159  0.99939713  0.00237896    -0.70600
O496        O  0.63222359  0.98898469  0.97707692    -0.61800
O497        O  0.66343028  0.96715213  0.98780746    -0.74300
O498        O  0.64970780  0.02132694  0.99142099    -0.73100
Cu499      Cu  0.67050351  0.99980031  0.96122078     1.04600
Cu500      Cu  0.65628091  0.99407845  0.99069437     1.04300
C501        C  0.65330792  0.03230318  0.97778179     0.93200
C502        C  0.67185816  0.96118350  0.97324918     0.92300
C503        C  0.63130359  0.99009786  0.95928611     0.84500
C504        C  0.69565390  0.00339691  0.99256942     0.90700
O505        O  0.97013998  0.17195688  0.01039918    -0.73000
O506        O  0.96792817  0.18414969  0.06489500    -0.74000
O507        O  0.95451667  0.15426639  0.04245142    -0.62600
O508        O  0.98278227  0.20234771  0.03325302    -0.71000
O509        O  0.95586548  0.21652313  0.02784641    -0.70600
O510        O  0.92811393  0.16909726  0.03675671    -0.61800
O511        O  0.94099506  0.19875864  0.06012543    -0.74300
O512        O  0.94323996  0.18645798  0.00510637    -0.73100
Cu513      Cu  0.96980614  0.17765040  0.03782623     1.04600
Cu514      Cu  0.94115140  0.19325110  0.03231367     1.04300
C515        C  0.95708042  0.17684126  0.99929479     0.93200
C516        C  0.95410503  0.19348033  0.07107753     0.92300
C517        C  0.93669702  0.15409515  0.04092592     0.84500
C518        C  0.97357725  0.21722607  0.02963782     0.90700
O519        O  0.88705653  0.98720405  0.06332984    -0.73000
O520        O  0.83913030  0.00293077  0.03846313    -0.74000
O521        O  0.87251072  0.02113975  0.04928030    -0.62600
O522        O  0.85375547  0.96905459  0.05185914    -0.71000
O523        O  0.84224575  0.97433460  0.08018571    -0.70600
O524        O  0.85901922  0.02779980  0.07639695    -0.61800
O525        O  0.82635642  0.00707784  0.06613689    -0.74300
O526        O  0.87458386  0.99411030  0.09092415    -0.73100
Cu527      Cu  0.86358671  0.99493768  0.04978209     1.04600
Cu528      Cu  0.85015060  0.00113489  0.07939701     1.04300
C529        C  0.88821523  0.98808033  0.08113892     0.93200
C530        C  0.82477298  0.00664777  0.04839512     0.92300
C531        C  0.86858214  0.03281410  0.06212756     0.84500
C532        C  0.84508451  0.96340480  0.06637208     0.90700
O533        O  0.06209592  0.96524135  0.18239735    -0.73000
O534        O  0.01310492  0.97058805  0.15690574    -0.74000
O535        O  0.02957567  0.98589838  0.18991949    -0.62600
O536        O  0.04568092  0.94958231  0.15039121    -0.71000
O537        O  0.03490610  0.92601958  0.16742204    -0.70600
O538        O  0.01795719  0.96213447  0.20625336    -0.61800
O539        O  0.00144921  0.94673733  0.17310530    -0.74300
O540        O  0.05114728  0.94174337  0.19954204    -0.73100
Cu541      Cu  0.03790979  0.96868248  0.16934233     1.04600
Cu542      Cu  0.02584641  0.94338278  0.18720795     1.04300
C543        C  0.06454621  0.95259307  0.19469027     0.93200
C544        C  0.99977644  0.95926733  0.16043513     0.92300
C545        C  0.02187215  0.97948024  0.20472552     0.84500
C546        C  0.04311565  0.93204075  0.15278991     0.90700
O547        O  0.06889756  0.85232943  0.96611046    -0.73000
O548        O  0.06851284  0.86629990  0.02025734    -0.74000
O549        O  0.05273953  0.83665693  0.99869461    -0.62600
O550        O  0.08437433  0.88168059  0.98778493    -0.71000
O551        O  0.05883157  0.89816078  0.98261312    -0.70600
O552        O  0.02710980  0.85341106  0.99431534    -0.61800
O553        O  0.04281437  0.88249901  0.01572687    -0.74300
O554        O  0.04311335  0.86892399  0.96148743    -0.73100
Cu555      Cu  0.06948650  0.85861352  0.99339286     1.04600
Cu556      Cu  0.04207214  0.87633163  0.98842634     1.04300
C557        C  0.05624881  0.85862710  0.95524054     0.93200
C558        C  0.05566240  0.87681912  0.02667892     0.92300
C559        C  0.03493188  0.83785229  0.99808674     0.84500
C560        C  0.07663531  0.89707840  0.98324551     0.90700
O561        O  0.19657415  0.03709710  0.95730946    -0.73000
O562        O  0.15115091  0.04770744  0.92635984    -0.74000
O563        O  0.18273856  0.06822635  0.93776026    -0.62600
O564        O  0.16431736  0.01594089  0.94586702    -0.71000
O565        O  0.14868984  0.02542293  0.97097682    -0.70600
O566        O  0.16827041  0.07698289  0.96380921    -0.61800
O567        O  0.13619553  0.05769982  0.95158362    -0.74300
O568        O  0.18126708  0.04492441  0.98294089    -0.73100
Cu569      Cu  0.17425892  0.04180041  0.94099952     1.04600
Cu570      Cu  0.15810818  0.05148492  0.96826729     1.04300
C571        C  0.19639785  0.03978062  0.97495591     0.93200
C572        C  0.13672687  0.05500399  0.93391384     0.92300
C573        C  0.17811227  0.08086617  0.94944654     0.84500
C574        C  0.15306537  0.01265243  0.95936233     0.90700
O575        O  0.96464526  0.10825436  0.83346264    -0.73000
O576        O  0.01908516  0.10125705  0.84750827    -0.74000
O577        O  0.99552637  0.08942314  0.81716483    -0.62600
O578        O  0.98822395  0.12024688  0.86311824    -0.71000
O579        O  0.98029344  0.09472320  0.87888614    -0.70600
O580        O  0.98828434  0.06367612  0.83288344    -0.61800
O581        O  0.01102510  0.07568346  0.86319414    -0.74300
O582        O  0.95753547  0.08246192  0.84928616    -0.73100
Cu583      Cu  0.99218431  0.10566840  0.83968510     1.04600
Cu584      Cu  0.98408448  0.07823136  0.85656241     1.04300
C585        C  0.95255199  0.09648819  0.83950486     0.93200
C586        C  0.02340983  0.08749077  0.85807884     0.92300
C587        C  0.99273035  0.07178990  0.81758528     0.84500
C588        C  0.98297144  0.11238594  0.87824752     0.90700
O589        O  0.01503538  0.07504748  0.32164903    -0.73000
O590        O  0.02950634  0.09988259  0.36917331    -0.74000
O591        O  0.04963698  0.08279760  0.33957779    -0.62600
O592        O  0.99535586  0.09174487  0.35205764    -0.71000
O593        O  0.99485574  0.06387466  0.36576379    -0.70600
O594        O  0.04894907  0.05580674  0.35495074    -0.61800
O595        O  0.02867969  0.07285570  0.38424397    -0.74300
O596        O  0.01558509  0.04745287  0.33554769    -0.73100
Cu597      Cu  0.02239549  0.08825303  0.34501384     1.04600
Cu598      Cu  0.02186829  0.05898511  0.36056238     1.04300
C599        C  0.01369788  0.05731600  0.32073323     0.93200
C600        C  0.03125562  0.09057138  0.38425688     0.92300
C601        C  0.05790089  0.06821114  0.34580616     0.84500
C602        C  0.98684841  0.07924982  0.36161019     0.90700
O603        O  0.83164715  0.04431996  0.48888313    -0.73000
O604        O  0.87683192  0.05954067  0.45893250    -0.74000
O605        O  0.84447829  0.07781650  0.47165311    -0.62600
O606        O  0.86464697  0.02599524  0.47561509    -0.71000
O607        O  0.84984785  0.01829272  0.44955234    -0.70600
O608        O  0.82851101  0.06996451  0.44657129    -0.61800
O609        O  0.86144768  0.05259403  0.43291202    -0.74300
O610        O  0.81684539  0.03596414  0.46292427    -0.73100
Cu611      Cu  0.85484987  0.05210497  0.47473545     1.04600
Cu612      Cu  0.83864575  0.04386320  0.44709745     1.04300
C613        C  0.81709338  0.03804797  0.48062714     0.93200
C614        C  0.87606408  0.05877254  0.44113340     0.92300
C615        C  0.83333895  0.08230171  0.45849491     0.84500
C616        C  0.86099719  0.01410797  0.46282532     0.90700
O617        O  0.95906342  0.83884000  0.49511087    -0.73000
O618        O  0.93118812  0.88539035  0.48409059    -0.74000
O619        O  0.94252888  0.85434007  0.46274960    -0.62600
O620        O  0.94800248  0.87075549  0.51640602    -0.71000
O621        O  0.97421158  0.88556726  0.50864058    -0.70600
O622        O  0.96975135  0.86776618  0.45610073    -0.61800
O623        O  0.95745251  0.89944326  0.47551607    -0.74300
O624        O  0.98595460  0.85309684  0.48903948    -0.73100
Cu625      Cu  0.94431049  0.86176144  0.48991616     1.04600
Cu626      Cu  0.97281579  0.87692838  0.48216611     1.04300
C627        C  0.97681020  0.83840374  0.49359201     0.93200
C628        C  0.93970000  0.89961824  0.47753369     0.92300
C629        C  0.95517434  0.85891501  0.45092497     0.84500
C630        C  0.96179683  0.88129976  0.52072709     0.90700
O631        O  0.06963647  0.17444465  0.50471910    -0.73000
O632        O  0.07709437  0.19627252  0.55601302    -0.74000
O633        O  0.08795600  0.16298545  0.53783342    -0.62600
O634        O  0.05873742  0.20820082  0.52309870    -0.71000
O635        O  0.03271763  0.19389304  0.53212988    -0.70600
O636        O  0.06216781  0.14921494  0.54825055    -0.61800
O637        O  0.05079323  0.18265344  0.56543487    -0.74300
O638        O  0.04387292  0.16021291  0.51478507    -0.73100
Cu639      Cu  0.07424905  0.18598153  0.52998996     1.04600
Cu640      Cu  0.04645228  0.17103835  0.54040303     1.04300
C641        C  0.05568777  0.16363273  0.50184915     0.93200
C642        C  0.06521655  0.19259765  0.56886779     0.92300
C643        C  0.07984824  0.14918721  0.54579853     0.84500
C644        C  0.04108456  0.20832377  0.52569802     0.90700
O645        O  0.15487740  0.00297981  0.60350286    -0.73000
O646        O  0.20228937  0.01120676  0.57465415    -0.74000
O647        O  0.17102068  0.03397591  0.58562357    -0.62600
O648        O  0.18552430  0.98008226  0.59296286    -0.71000
O649        O  0.17147840  0.97273657  0.56634129    -0.70600
O650        O  0.15610635  0.02605137  0.55960383    -0.61800
O651        O  0.18742553  0.00440268  0.54837944    -0.74300
O652        O  0.14048853  0.99479103  0.57728452    -0.73100
Cu653      Cu  0.17904830  0.00734467  0.59006270     1.04600
Cu654      Cu  0.16346491  0.99924209  0.56195848     1.04300
C655        C  0.14012553  0.99790334  0.59484641     0.93200
C656        C  0.20241833  0.00889118  0.55694269     0.92300
C657        C  0.16040635  0.03821953  0.57191969     0.84500
C658        C  0.18050738  0.96786306  0.58093195     0.90700
O659        O  0.98101063  0.00605235  0.68133019    -0.73000
O660        O  0.97326070  0.97087829  0.63847235    -0.74000
O661        O  0.95056497  0.98359103  0.66787020    -0.62600
O662        O  0.00326497  0.99261285  0.65174973    -0.71000
O663        O  0.01256614  0.96887009  0.66947757    -0.70600
O664        O  0.95985577  0.96030448  0.68571662    -0.61800
O665        O  0.98272499  0.94706399  0.65582806    -0.74300
O666        O  0.98976255  0.98237000  0.69905019    -0.73100
Cu667      Cu  0.97665327  0.98913392  0.65932515     1.04600
Cu668      Cu  0.98651173  0.96385161  0.67819847     1.04300
C669        C  0.98688598  0.99988022  0.69699056     0.93200
C670        C  0.97720287  0.95356646  0.64012969     0.92300
C671        C  0.94668755  0.97025563  0.67911361     0.84500
C672        C  0.01612531  0.98187718  0.65779281     0.90700
O673        O  0.75615874  0.63418240  0.79479576    -0.73000
O674        O  0.70342239  0.61605714  0.79333063    -0.74000
O675        O  0.72192113  0.64682999  0.80982379    -0.62600
O676        O  0.73746822  0.60298851  0.77831365    -0.71000
O677        O  0.74165869  0.58653237  0.80423030    -0.70600
O678        O  0.72793802  0.63070482  0.83555082    -0.61800
O679        O  0.70811061  0.60035909  0.81967026    -0.74300
O680        O  0.76154240  0.61739886  0.82036808    -0.73100
Cu681      Cu  0.72962819  0.62555693  0.79313126     1.04600
Cu682      Cu  0.73503219  0.60809071  0.82079614     1.04300
C683        C  0.76696106  0.62914764  0.80804533     0.93200
C684        C  0.69731346  0.60569902  0.80651603     0.92300
C685        C  0.72274307  0.64581497  0.82764388     0.84500
C686        C  0.74139553  0.58756637  0.78640476     0.90700
O687        O  0.92723185  0.75344241  0.77866156    -0.73000
O688        O  0.88076189  0.72573786  0.79354192    -0.74000
O689        O  0.91095942  0.74206079  0.81295350    -0.62600
O690        O  0.89654678  0.73735910  0.75940064    -0.71000
O691        O  0.91215929  0.71068967  0.75685235    -0.70600
O692        O  0.92607532  0.71503315  0.81113289    -0.61800
O693        O  0.89623705  0.69899492  0.79096554    -0.74300
O694        O  0.94272425  0.72671189  0.77740071    -0.73100
Cu695      Cu  0.90340834  0.74061774  0.78613221     1.04600
Cu696      Cu  0.91990796  0.71194551  0.78394728     1.04300
C697        C  0.94250880  0.74451909  0.77638969     0.93200
C698        C  0.88122895  0.70791076  0.79451673     0.92300
C699        C  0.92042838  0.72907391  0.82060965     0.84500
C700        C  0.90146427  0.72314600  0.74984753     0.90700
O701        O  0.60479185  0.86246504  0.74049621    -0.73000
O702        O  0.55908804  0.83235952  0.75203910    -0.74000
O703        O  0.59230161  0.84191112  0.77177278    -0.62600
O704        O  0.57172080  0.85299422  0.72082036    -0.71000
O705        O  0.58540326  0.82728830  0.71011776    -0.70600
O706        O  0.60528274  0.81629514  0.76077738    -0.61800
O707        O  0.57294137  0.80700142  0.74158046    -0.74300
O708        O  0.61852272  0.83686283  0.72962306    -0.73100
Cu709      Cu  0.58146628  0.84833726  0.74668386     1.04600
Cu710      Cu  0.59601869  0.82102606  0.73511752     1.04300
C711        C  0.61893372  0.85432118  0.73333619     0.93200
C712        C  0.55867310  0.81488077  0.74882144     0.92300
C713        C  0.60206672  0.82723289  0.77442294     0.84500
C714        C  0.57533301  0.84174474  0.70745994     0.90700
O715        O  0.67969289  0.81402092  0.94057680    -0.73000
O716        O  0.68766501  0.76351516  0.91689146    -0.74000
O717        O  0.70068236  0.78217430  0.95001753    -0.62600
O718        O  0.66679504  0.79608948  0.90794194    -0.71000
O719        O  0.69092371  0.80643060  0.89191253    -0.70600
O720        O  0.72494556  0.79240730  0.93384979    -0.61800
O721        O  0.71199337  0.77461116  0.90107894    -0.74300
O722        O  0.70403195  0.82472796  0.92453621    -0.73100
Cu723      Cu  0.68289135  0.78844695  0.92942777     1.04600
Cu724      Cu  0.70881066  0.79990606  0.91234031     1.04300
C725        C  0.69061403  0.82741537  0.93602283     0.93200
C726        C  0.70086847  0.76123159  0.90503050     0.92300
C727        C  0.71815343  0.78555904  0.94888970     0.84500
C728        C  0.67323233  0.80355349  0.89325273     0.90700
O729        O  0.80018696  0.75105643  0.57607344    -0.73000
O730        O  0.82838537  0.74050121  0.62274295    -0.74000
O731        O  0.81843121  0.71974971  0.59067078    -0.62600
O732        O  0.80953797  0.77212068  0.60884678    -0.71000
O733        O  0.78324476  0.76282554  0.62206171    -0.70600
O734        O  0.79207203  0.71085174  0.60459322    -0.61800
O735        O  0.80255696  0.73091389  0.63689707    -0.74300
O736        O  0.77372936  0.74219017  0.58951726    -0.73100
Cu737      Cu  0.81500097  0.74626721  0.59913096     1.04600
Cu738      Cu  0.78695839  0.73646141  0.61379790     1.04300
C739        C  0.78270523  0.74772848  0.57504375     0.93200
C740        C  0.82027757  0.73351887  0.63700901     0.92300
C741        C  0.80648329  0.70710986  0.59483396     0.84500
C742        C  0.79494984  0.77580146  0.61849245     0.90700
O743        O  0.79793120  0.94578158  0.68629521    -0.73000
O744        O  0.74481183  0.92909686  0.69515526    -0.74000
O745        O  0.76725660  0.96022453  0.70658076    -0.62600
O746        O  0.77551284  0.91532810  0.67452352    -0.71000
O747        O  0.78439566  0.89910039  0.69944141    -0.70600
O748        O  0.77662778  0.94414892  0.73144518    -0.61800
O749        O  0.75440793  0.91357152  0.72022562    -0.74300
O750        O  0.80664935  0.92929827  0.71110953    -0.73100
Cu751      Cu  0.77100979  0.93824170  0.68975399     1.04600
Cu752      Cu  0.78080067  0.92102210  0.71641902     1.04300
C753        C  0.81063654  0.93995287  0.69740356     0.93200
C754        C  0.74145550  0.91820223  0.70895582     0.92300
C755        C  0.77101698  0.95934139  0.72398197     0.84500
C756        C  0.78112699  0.90012238  0.68192759     0.90700
O757        O  0.20857981  0.76728933  0.61988259    -0.73000
O758        O  0.21182977  0.82190433  0.60889673    -0.74000
O759        O  0.19296352  0.79991754  0.63561811    -0.62600
O760        O  0.22730310  0.78865489  0.59286588    -0.71000
O761        O  0.20280837  0.78715332  0.57409960    -0.70600
O762        O  0.16841322  0.79645376  0.61700927    -0.61800
O763        O  0.18680920  0.81960492  0.59074706    -0.74300
O764        O  0.18433380  0.76409552  0.60077716    -0.73100
Cu765      Cu  0.21103521  0.79455369  0.61492524     1.04600
Cu766      Cu  0.18476470  0.79176467  0.59492231     1.04300
C767        C  0.19612995  0.75709727  0.61219179     0.93200
C768        C  0.19943968  0.82953105  0.59861337     0.92300
C769        C  0.17529051  0.79975551  0.63310852     0.84500
C770        C  0.22040875  0.78581980  0.57666724     0.90700
O771        O  0.23514715  0.60411415  0.73838935    -0.73000
O772        O  0.22085246  0.64519236  0.70314120    -0.74000
O773        O  0.20194449  0.61435335  0.71927348    -0.62600
O774        O  0.25392850  0.63461783  0.72219541    -0.71000
O775        O  0.26223641  0.61645367  0.69840825    -0.70600
O776        O  0.21010744  0.59743216  0.69457503    -0.61800
O777        O  0.22979001  0.62795518  0.67897412    -0.74300
O778        O  0.24228423  0.58623964  0.71420162    -0.73100
Cu779      Cu  0.22767565  0.62521919  0.72159246     1.04600
Cu780      Cu  0.23641482  0.60641465  0.69570569     1.04300
C781        C  0.24084998  0.58854744  0.73185694     0.93200
C782        C  0.22306334  0.64312229  0.68554319     0.92300
C783        C  0.19783033  0.60275529  0.70634236     0.84500
C784        C  0.26629788  0.62846862  0.71091402     0.90700
O785        O  0.28416877  0.75272769  0.94074144    -0.73000
O786        O  0.30689319  0.74289890  0.89052361    -0.74000
O787        O  0.29840948  0.72076699  0.92194919    -0.62600
O788        O  0.29254434  0.77474509  0.90887898    -0.71000
O789        O  0.32064028  0.78102974  0.92050081    -0.70600
O790        O  0.32655459  0.72659046  0.93364395    -0.61800
O791        O  0.33487694  0.74920338  0.90228283    -0.74300
O792        O  0.31226622  0.75866871  0.95246819    -0.73100
Cu793      Cu  0.29449364  0.74760740  0.91520658     1.04600
Cu794      Cu  0.32454894  0.75410032  0.92771531     1.04300
C795        C  0.29460227  0.75718865  0.95451877     0.93200
C796        C  0.32456290  0.74448305  0.88852567     0.92300
C797        C  0.31357825  0.71505088  0.92933702     0.84500
C798        C  0.30578705  0.78627052  0.91211867     0.90700
O799        O  0.44023492  0.72813414  0.74847901    -0.73000
O800        O  0.39912583  0.69272943  0.73618073    -0.74000
O801        O  0.43157173  0.70571937  0.71709339    -0.62600
O802        O  0.40761673  0.71490762  0.76716447    -0.71000
O803        O  0.39096204  0.73796147  0.75473974    -0.70600
O804        O  0.41572621  0.72973921  0.70546796    -0.61800
O805        O  0.38353693  0.71602812  0.72308730    -0.74300
O806        O  0.42356292  0.75173729  0.73726652    -0.73100
Cu807      Cu  0.42031390  0.70957304  0.74267032     1.04600
Cu808      Cu  0.40295069  0.73470443  0.72973069     1.04300
C809        C  0.43842269  0.74549525  0.74480212     0.93200
C810        C  0.38460319  0.69891542  0.72795661     0.92300
C811        C  0.42712473  0.71622424  0.70335188     0.84500
C812        C  0.39504244  0.72748187  0.76856640     0.90700
O813        O  0.09726859  0.83890152  0.75602058    -0.73000
O814        O  0.08206108  0.84541916  0.80929626    -0.74000
O815        O  0.11339226  0.85646976  0.78753778    -0.62600
O816        O  0.06623857  0.82776880  0.77789620    -0.71000
O817        O  0.08101543  0.80139887  0.78473695    -0.70600
O818        O  0.12759947  0.83026486  0.79584904    -0.61800
O819        O  0.09599233  0.81873572  0.81676309    -0.74300
O820        O  0.11223529  0.81279530  0.76365555    -0.73100
Cu821      Cu  0.08924587  0.84307533  0.78241128     1.04600
Cu822      Cu  0.10474306  0.81488058  0.79048457     1.04300
C823        C  0.10717350  0.82481262  0.75149033     0.93200
C824        C  0.08638071  0.83302345  0.82136941     0.92300
C825        C  0.12791239  0.84795661  0.79344853     0.84500
C826        C  0.06620833  0.81002468  0.77988467     0.90700
O827        O  0.28012143  0.92102571  0.84916447    -0.73000
O828        O  0.27075146  0.96471055  0.81562829    -0.74000
O829        O  0.24895610  0.93386948  0.82888764    -0.62600
O830        O  0.30203938  0.95151232  0.83574611    -0.71000
O831        O  0.31075924  0.93473923  0.81115257    -0.70600
O832        O  0.25816000  0.91736367  0.80429928    -0.61800
O833        O  0.27966743  0.94819656  0.79093717    -0.74300
O834        O  0.28901121  0.90425887  0.82462077    -0.73100
Cu835      Cu  0.27515737  0.94342215  0.83319096     1.04600
Cu836      Cu  0.28469759  0.92558970  0.80688104     1.04300
C837        C  0.28572610  0.90563895  0.84212982     0.93200
C838        C  0.27394245  0.96350575  0.79811114     0.92300
C839        C  0.24538982  0.92232952  0.81572291     0.84500
C840        C  0.31473792  0.94585164  0.82451268     0.90700
O841        O  0.11122182  0.69053912  0.28048690    -0.73000
O842        O  0.06443222  0.72031385  0.27408743    -0.74000
O843        O  0.09563468  0.71160123  0.25094557    -0.62600
O844        O  0.08017590  0.69950962  0.30368067    -0.71000
O845        O  0.09450029  0.72531712  0.31340909    -0.70600
O846        O  0.11098262  0.73646953  0.26143034    -0.61800
O847        O  0.07938799  0.74589096  0.28307128    -0.74300
O848        O  0.12580223  0.71569382  0.29133159    -0.73100
Cu849      Cu  0.08732901  0.70458979  0.27694277     1.04600
Cu850      Cu  0.10315215  0.73172250  0.28767241     1.04300
C851        C  0.12590623  0.69839296  0.28690492     0.93200
C852        C  0.06447249  0.73784274  0.27740503     0.92300
C853        C  0.10606830  0.72584192  0.24800469     0.84500
C854        C  0.08485026  0.71068746  0.31680330     0.90700
O855        O  0.25047285  0.61710365  0.31354004    -0.73000
O856        O  0.30285110  0.59803162  0.31887573    -0.74000
O857        O  0.28202179  0.62753546  0.33454411    -0.62600
O858        O  0.27151030  0.58726793  0.29798096    -0.71000
O859        O  0.27973696  0.60577042  0.27449027    -0.70600
O860        O  0.29209048  0.64579012  0.31155858    -0.61800
O861        O  0.31176940  0.61613305  0.29519500    -0.74300
O862        O  0.25994210  0.63590585  0.29064032    -0.73100
Cu863      Cu  0.27632573  0.60681295  0.31700300     1.04600
Cu864      Cu  0.28614765  0.62655101  0.29211964     1.04300
C865        C  0.24710604  0.62977368  0.30142609     0.93200
C866        C  0.31554535  0.60428059  0.30795302     0.92300
C867        C  0.28915369  0.64289469  0.32894085     0.84500
C868        C  0.27414367  0.58992066  0.28055019     0.90700
O869        O  0.22885931  0.75998857  0.08831821    -0.73000
O870        O  0.19454958  0.75039629  0.13177395    -0.74000
O871        O  0.20543505  0.73028824  0.09943046    -0.62600
O872        O  0.21824695  0.78008587  0.12094849    -0.71000
O873        O  0.19431873  0.79290113  0.10593394    -0.70600
O874        O  0.18239283  0.74302543  0.08319959    -0.61800
O875        O  0.17117632  0.76308427  0.11613257    -0.74300
O876        O  0.20570561  0.77375001  0.07356643    -0.73100
Cu877      Cu  0.21260091  0.75474600  0.11065956     1.04600
Cu878      Cu  0.18758709  0.76858010  0.09412971     1.04300
C879        C  0.22268922  0.76849304  0.07389270     0.93200
C880        C  0.17748678  0.75559929  0.13101979     0.92300
C881        C  0.19215666  0.72875571  0.08765100     0.84500
C882        C  0.20803557  0.79419523  0.11721352     0.90700
O883        O  0.34159879  0.78340941  0.41279058    -0.73000
O884        O  0.30994223  0.77491532  0.45817648    -0.74000
O885        O  0.32338696  0.75231639  0.42823256    -0.62600
O886        O  0.32851695  0.80598418  0.44260191    -0.71000
O887        O  0.30293012  0.81287797  0.42643131    -0.70600
O888        O  0.29807231  0.75947465  0.41177898    -0.61800
O889        O  0.28450014  0.78154266  0.44177176    -0.74300
O890        O  0.31613047  0.79072221  0.39673037    -0.73100
Cu891      Cu  0.32671561  0.77889716  0.43610573     1.04600
Cu892      Cu  0.29947509  0.78636311  0.41867184     1.04300
C893        C  0.33375670  0.78816529  0.39749490     0.93200
C894        C  0.29227346  0.77723460  0.45721712     0.92300
C895        C  0.31037173  0.74768424  0.41697877     0.84500
C896        C  0.31663142  0.81785520  0.43668131     0.90700
O897        O  0.38321446  0.82444872  0.23106886    -0.73000
O898        O  0.42630619  0.78998565  0.24321468    -0.74000
O899        O  0.39406504  0.80267694  0.26270281    -0.62600
O900        O  0.41482252  0.81118291  0.21203907    -0.71000
O901        O  0.43099921  0.83567323  0.22234736    -0.70600
O902        O  0.41043298  0.82667855  0.27377031    -0.61800
O903        O  0.44248766  0.81435450  0.25348465    -0.74300
O904        O  0.39930074  0.84830438  0.24242377    -0.73100
Cu905      Cu  0.40400868  0.80621956  0.23697843     1.04600
Cu906      Cu  0.42136097  0.83208953  0.24845724     1.04300
C907        C  0.38462653  0.84195816  0.23448089     0.93200
C908        C  0.44147747  0.79693275  0.24967567     0.92300
C909        C  0.39894602  0.81319479  0.27621665     0.84500
C910        C  0.42597497  0.82477309  0.20913764     0.90700
O911        O  0.23648314  0.92268753  0.18901600    -0.73000
O912        O  0.24593262  0.96603202  0.22241306    -0.74000
O913        O  0.26849099  0.93719788  0.20654932    -0.62600
O914        O  0.21384717  0.95108090  0.20505316    -0.71000
O915        O  0.20882371  0.93340666  0.22977554    -0.70600
O916        O  0.26258047  0.91889593  0.23090476    -0.61800
O917        O  0.24162926  0.94815813  0.24724359    -0.74300
O918        O  0.23030384  0.90487718  0.21365098    -0.73100
Cu919      Cu  0.24137827  0.94494399  0.20493671     1.04600
Cu920      Cu  0.23564686  0.92580903  0.23130593     1.04300
C921        C  0.23200952  0.90689542  0.19600447     0.93200
C922        C  0.24545616  0.96408999  0.24011608     0.92300
C923        C  0.27392477  0.92523216  0.21866252     0.84500
C924        C  0.20252013  0.94415066  0.21705092     0.90700
O925        O  0.59601455  0.21679813  0.81768273    -0.73000
O926        O  0.61066457  0.21978408  0.76384251    -0.74000
O927        O  0.58079029  0.23473906  0.78572468    -0.62600
O928        O  0.62519651  0.20166937  0.79572422    -0.71000
O929        O  0.60783526  0.17672320  0.78938821    -0.70600
O930        O  0.56360446  0.20960064  0.78012869    -0.61800
O931        O  0.59343685  0.19476873  0.75737137    -0.74300
O932        O  0.57879913  0.19160981  0.81176174    -0.73100
Cu933      Cu  0.60370218  0.21917607  0.79089299     1.04600
Cu934      Cu  0.58524789  0.19236658  0.78437853     1.04300
C935        C  0.58540797  0.20356277  0.82327892     0.93200
C936        C  0.60509368  0.20738719  0.75229344     0.92300
C937        C  0.56498437  0.22731422  0.78183685     0.84500
C938        C  0.62342790  0.18393692  0.79420411     0.90700
O939        O  0.75678918  0.41050083  0.73242524    -0.73000
O940        O  0.70442279  0.42852536  0.72611715    -0.74000
O941        O  0.72364839  0.39548518  0.71707621    -0.62600
O942        O  0.73757247  0.44434473  0.74147824    -0.71000
O943        O  0.74456926  0.45633605  0.71384819    -0.70600
O944        O  0.73071888  0.40779901  0.68950081    -0.61800
O945        O  0.71131919  0.44106269  0.69893773    -0.74300
O946        O  0.76421990  0.42229828  0.70468192    -0.73100
Cu947      Cu  0.73042947  0.41939830  0.73026146     1.04600
Cu948      Cu  0.73805751  0.43234110  0.70081246     1.04300
C949        C  0.76857534  0.41285742  0.71923709     0.93200
C950        C  0.69922823  0.43737562  0.71157824     0.92300
C951        C  0.72495073  0.39402935  0.69932842     0.84500
C952        C  0.74263271  0.45830290  0.73147984     0.90700
O953        O  0.70033698  0.21536417  0.59773782    -0.73000
O954        O  0.69806248  0.26811991  0.61760728    -0.74000
O955        O  0.71416835  0.25025982  0.58551963    -0.62600
O956        O  0.68396732  0.23291662  0.62947687    -0.71000
O957        O  0.70974172  0.22911621  0.64618603    -0.70600
O958        O  0.74034292  0.24345306  0.60042445    -0.61800
O959        O  0.72499287  0.26331659  0.63216451    -0.74300
O960        O  0.72514645  0.20999267  0.61512138    -0.73100
Cu961      Cu  0.69826228  0.24191804  0.60705662     1.04600
Cu962      Cu  0.72600370  0.23642177  0.62403895     1.04300
C963        C  0.71301968  0.20418868  0.60342142     0.93200
C964        C  0.71122507  0.27393760  0.62818475     0.92300
C965        C  0.73191134  0.24840842  0.58544808     0.84500
C966        C  0.69193238  0.22825925  0.64474209     0.90700
O967        O  0.74701862  0.10437611  0.83505075    -0.73000
O968        O  0.80266207  0.09433038  0.83554191    -0.74000
O969        O  0.77921906  0.12277088  0.84902304    -0.62600
O970        O  0.77025439  0.07509066  0.82141191    -0.71000
O971        O  0.77428095  0.08986893  0.79457660    -0.70600
O972        O  0.78266118  0.13805115  0.82224450    -0.61800
O973        O  0.80560691  0.10934719  0.80859840    -0.74300
O974        O  0.75074236  0.11900088  0.80789471    -0.73100
Cu975      Cu  0.77462189  0.09851459  0.83615065     1.04600
Cu976      Cu  0.77832000  0.11451501  0.80736018     1.04300
C977        C  0.74031200  0.11370138  0.82138877     0.93200
C978        C  0.81298341  0.10107225  0.82252717     0.92300
C979        C  0.78290139  0.13779244  0.84010714     0.84500
C980        C  0.77109290  0.07477341  0.80360163     0.90700
O981        O  0.89137325  0.32659738  0.73078170    -0.73000
O982        O  0.93927728  0.29931152  0.74000532    -0.74000
O983        O  0.90855355  0.31015950  0.76195615    -0.62600
O984        O  0.92219318  0.31567218  0.70830434    -0.71000
O985        O  0.93597708  0.34282516  0.71441868    -0.70600
O986        O  0.92316379  0.33670284  0.76879239    -0.61800
O987        O  0.95372348  0.32615868  0.74566224    -0.74300
O988        O  0.90541668  0.35344673  0.73761478    -0.73100
Cu989      Cu  0.91490302  0.31201178  0.73502542     1.04600
Cu990      Cu  0.93010699  0.34074593  0.74183896     1.04300
C991        C  0.89074544  0.34428798  0.73310037     0.93200
C992        C  0.95408928  0.30836778  0.74419062     0.92300
C993        C  0.91356317  0.32247487  0.77382042     0.84500
C994        C  0.93105032  0.33017750  0.70280592     0.90700
O995        O  0.82159462  0.27945191  0.95283572    -0.73000
O996        O  0.85245254  0.28662798  0.90679216    -0.74000
O997        O  0.84269616  0.30913287  0.93811806    -0.62600
O998        O  0.83130099  0.25655349  0.92152357    -0.71000
O999        O  0.80699244  0.26722093  0.90546476    -0.70600
O1000       O  0.81689304  0.31881537  0.92386355    -0.61800
O1001       O  0.82779383  0.29832583  0.89235678    -0.74300
O1002       O  0.79635894  0.28788933  0.93717357    -0.73100
Cu1003     Cu  0.83790390  0.28250271  0.93036324     1.04600
Cu1004     Cu  0.81114520  0.29334698  0.91419110     1.04300
C1005       C  0.80409389  0.28282871  0.95239449     0.93200
C1006       C  0.84511231  0.29412868  0.89237839     0.92300
C1007       C  0.83133492  0.32216300  0.93373539     0.84500
C1008       C  0.81749462  0.25378592  0.91055574     0.90700
O1009       O  0.28570046  0.12615982  0.67564645    -0.73000
O1010       O  0.27342352  0.08218710  0.70846237    -0.74000
O1011       O  0.25239529  0.11159220  0.69133894    -0.62600
O1012       O  0.30651909  0.09711440  0.69245519    -0.71000
O1013       O  0.31047832  0.11406460  0.71816748    -0.70600
O1014       O  0.25712188  0.12946383  0.71630154    -0.61800
O1015       O  0.27660558  0.09989004  0.73356531    -0.74300
O1016       O  0.29080613  0.14329812  0.70092291    -0.73100
Cu1017     Cu  0.27929958  0.10356663  0.69113026     1.04600
Cu1018     Cu  0.28384840  0.12222332  0.71814515     1.04300
C1019       C  0.29049960  0.14164775  0.68314355     0.93200
C1020       C  0.27315185  0.08398896  0.72623432     0.92300
C1021       C  0.24645898  0.12326171  0.70345218     0.84500
C1022       C  0.31707496  0.10375594  0.70521500     0.90700
O1023       O  0.09288975  0.25062851  0.74214006    -0.73000
O1024       O  0.13678336  0.21947284  0.72619787    -0.74000
O1025       O  0.10686451  0.23680848  0.70751652    -0.62600
O1026       O  0.12322844  0.23357000  0.76061964    -0.71000
O1027       O  0.10588913  0.20809475  0.76501424    -0.70600
O1028       O  0.09037531  0.21070552  0.71140249    -0.61800
O1029       O  0.11985522  0.19391304  0.73113327    -0.74300
O1030       O  0.07597914  0.22487088  0.74504308    -0.73100
Cu1031     Cu  0.11552766  0.23607520  0.73404684     1.04600
Cu1032     Cu  0.09741348  0.20854005  0.73833249     1.04300
C1033       C  0.07729199  0.24263902  0.74570903     0.93200
C1034       C  0.13509768  0.20167684  0.72605535     0.92300
C1035       C  0.09635022  0.22395667  0.70100795     0.84500
C1036       C  0.11734031  0.22036374  0.77108113     0.90700
O1037       O  0.33118674  0.26444739  0.60104902    -0.73000
O1038       O  0.33097693  0.31825675  0.58479307    -0.74000
O1039       O  0.34637589  0.29826078  0.61533594    -0.62600
O1040       O  0.31566459  0.28507238  0.57029256    -0.71000
O1041       O  0.28986468  0.28845594  0.58681641    -0.70600
O1042       O  0.32042567  0.30446086  0.63101535    -0.61800
O1043       O  0.30438254  0.32284203  0.60015313    -0.74300
O1044       O  0.30573076  0.26989584  0.61798413    -0.73100
Cu1045     Cu  0.33196057  0.29126760  0.59229341     1.04600
Cu1046     Cu  0.30420297  0.29650610  0.60956022     1.04300
C1047       C  0.31854396  0.25885297  0.61238423     0.93200
C1048       C  0.31761822  0.32894239  0.58983815     0.92300
C1049       C  0.33825193  0.30392318  0.63019753     0.84500
C1050       C  0.29782772  0.28501652  0.57122835     0.90700
O1051       O  0.41925044  0.32004203  0.81255257    -0.73000
O1052       O  0.40364051  0.31712353  0.75905517    -0.74000
O1053       O  0.43284269  0.30104234  0.78066434    -0.62600
O1054       O  0.39048160  0.33611172  0.79122044    -0.71000
O1055       O  0.40839259  0.36024059  0.78352565    -0.70600
O1056       O  0.45131003  0.32523606  0.77479958    -0.61800
O1057       O  0.42226112  0.34100431  0.75194320    -0.74300
O1058       O  0.43694493  0.34473205  0.80593083    -0.73100
Cu1059     Cu  0.41094307  0.31770723  0.78602146     1.04600
Cu1060     Cu  0.43041365  0.34360624  0.77873193     1.04300
C1061       C  0.43025249  0.33309994  0.81774032     0.93200
C1062       C  0.41015919  0.32875736  0.74716864     0.92300
C1063       C  0.44901758  0.30762363  0.77684418     0.84500
C1064       C  0.39273151  0.35371818  0.78915151     0.90700
O1065       O  0.24211964  0.45118735  0.79082172    -0.73000
O1066       O  0.23356183  0.40419268  0.82028021    -0.74000
O1067       O  0.21086149  0.43369863  0.80818310    -0.62600
O1068       O  0.26502173  0.42111182  0.80278597    -0.71000
O1069       O  0.27155237  0.43648988  0.82892246    -0.70600
O1070       O  0.21690027  0.44874983  0.83463986    -0.61800
O1071       O  0.24026319  0.41943686  0.84643635    -0.74300
O1072       O  0.24789671  0.46635062  0.81721450    -0.73100
Cu1073     Cu  0.23775812  0.42705015  0.80456164     1.04600
Cu1074     Cu  0.24445049  0.44333926  0.83267599     1.04300
C1075       C  0.24600291  0.46632106  0.79948103     0.93200
C1076       C  0.23507009  0.40457098  0.83806921     0.92300
C1077       C  0.20526011  0.44273443  0.82249792     0.84500
C1078       C  0.27678363  0.42651270  0.81505812     0.90700
O1079       O  0.22270338  0.27500968  0.90113155    -0.73000
O1080       O  0.22171186  0.22127028  0.91576319    -0.74000
O1081       O  0.20704424  0.24205794  0.88604494    -0.62600
O1082       O  0.23750122  0.25432395  0.93120485    -0.71000
O1083       O  0.21149690  0.25886685  0.94743897    -0.70600
O1084       O  0.18103204  0.24745977  0.90211512    -0.61800
O1085       O  0.19551247  0.22628595  0.93169567    -0.74300
O1086       O  0.19675802  0.28032770  0.91738684    -0.73100
Cu1087     Cu  0.22318706  0.24804705  0.90801293     1.04600
Cu1088     Cu  0.19532001  0.25345610  0.92528573     1.04300
C1089       C  0.20985970  0.28604438  0.90667465     0.93200
C1090       C  0.20808176  0.21522145  0.92557749     0.92300
C1091       C  0.18923856  0.24256028  0.88705539     0.84500
C1092       C  0.22931543  0.25836420  0.94654204     0.90700
O1093       O  0.34283324  0.25098310  0.11564417    -0.73000
O1094       O  0.31415149  0.26088382  0.06842320    -0.74000
O1095       O  0.32599665  0.28262820  0.09953943    -0.62600
O1096       O  0.33113603  0.22876346  0.08454681    -0.71000
O1097       O  0.30405207  0.22249880  0.09842230    -0.70600
O1098       O  0.29991249  0.27518140  0.11479726    -0.61800
O1099       O  0.28771339  0.25520394  0.08356941    -0.74300
O1100       O  0.31637286  0.24303043  0.12972642    -0.73100
Cu1101     Cu  0.32950648  0.25602118  0.09144310     1.04600
Cu1102     Cu  0.30113116  0.24871786  0.10708116     1.04300
C1103       C  0.33399061  0.24580967  0.13030043     0.93200
C1104       C  0.29631526  0.25980166  0.06862615     0.92300
C1105       C  0.31212869  0.28717042  0.10980805     0.84500
C1106       C  0.31835864  0.21714796  0.08925862     0.90700
O1107       O  0.24525664  0.43519190  0.18649038    -0.73000
O1108       O  0.29791542  0.45239581  0.17569034    -0.74000
O1109       O  0.27604076  0.42051350  0.16671878    -0.62600
O1110       O  0.26753703  0.46729916  0.19529765    -0.71000
O1111       O  0.27654602  0.45322525  0.22137327    -0.70600
O1112       O  0.28642717  0.40670495  0.19248317    -0.61800
O1113       O  0.30746527  0.43875735  0.20186619    -0.74300
O1114       O  0.25537653  0.42103387  0.21218417    -0.73100
Cu1115     Cu  0.27126427  0.44433273  0.18014679     1.04600
Cu1116     Cu  0.28173236  0.42942570  0.20788349     1.04300
C1117       C  0.24217586  0.42508466  0.20092310     0.93200
C1118       C  0.31090072  0.44850695  0.18730253     0.92300
C1119       C  0.28287230  0.40631453  0.17501922     0.84500
C1120       C  0.27122345  0.46787060  0.21272252     0.90700
O1121       O  0.24499093  0.13401997  0.30759068    -0.73000
O1122       O  0.19466094  0.10997002  0.31318329    -0.74000
O1123       O  0.21033619  0.14460454  0.32339187    -0.62600
O1124       O  0.22903682  0.09939556  0.29719119    -0.71000
O1125       O  0.23711305  0.08670522  0.32429797    -0.70600
O1126       O  0.21966866  0.13288509  0.35053707    -0.61800
O1127       O  0.20313421  0.09823239  0.34062141    -0.74300
O1128       O  0.25398206  0.12146419  0.33449546    -0.73100
Cu1129     Cu  0.21948529  0.12241703  0.30940729     1.04600
Cu1130     Cu  0.22882242  0.10939161  0.33846158     1.04300
C1131       C  0.25744280  0.13149878  0.32011380     0.93200
C1132       C  0.19091333  0.10044418  0.32782767     0.92300
C1133       C  0.21221622  0.14602592  0.34104548     0.84500
C1134       C  0.23544264  0.08566887  0.30655605     0.90700
O1135       O  0.42642326  0.24471027  0.28742052    -0.73000
O1136       O  0.38027344  0.21480356  0.29864362    -0.74000
O1137       O  0.41297570  0.22379614  0.31860899    -0.62600
O1138       O  0.39338559  0.23556956  0.26767363    -0.71000
O1139       O  0.40743383  0.21029994  0.25645133    -0.70600
O1140       O  0.42627788  0.19791604  0.30790530    -0.61800
O1141       O  0.39361029  0.18929277  0.28722144    -0.74300
O1142       O  0.44053829  0.21919399  0.27715201    -0.73100
Cu1143     Cu  0.40287865  0.23061479  0.29344954     1.04600
Cu1144     Cu  0.41753902  0.20331437  0.28174377     1.04300
C1145       C  0.44088428  0.23672583  0.28068051     0.93200
C1146       C  0.37954458  0.19741044  0.29465956     0.92300
C1147       C  0.42200681  0.20869353  0.32147695     0.84500
C1148       C  0.39703988  0.22461563  0.25409733     0.90700
O1149       O  0.06371914  0.33669310  0.25467681    -0.73000
O1150       O  0.11148061  0.36476845  0.24508285    -0.74000
O1151       O  0.08212161  0.35175374  0.22278441    -0.62600
O1152       O  0.09386736  0.35003388  0.27758714    -0.71000
O1153       O  0.10907017  0.32337697  0.27305103    -0.70600
O1154       O  0.09600059  0.32443855  0.21866853    -0.61800
O1155       O  0.12618161  0.33797435  0.24001257    -0.74300
O1156       O  0.07873257  0.30984502  0.25110359    -0.73100
Cu1157     Cu  0.08721808  0.35169472  0.25029901     1.04600
Cu1158     Cu  0.10298955  0.32294070  0.24569559     1.04300
C1159       C  0.06358339  0.31883888  0.25390005     0.93200
C1160       C  0.12612395  0.35584511  0.24017050     0.92300
C1161       C  0.08754235  0.33862722  0.21198115     0.84500
C1162       C  0.10380968  0.33660399  0.28381231     0.90700
O1163       O  0.18952853  0.26979936  0.42444801    -0.73000
O1164       O  0.19057071  0.32321394  0.44061977    -0.74000
O1165       O  0.17290803  0.30320116  0.41178441    -0.62600
O1166       O  0.20729964  0.28995873  0.45381894    -0.71000
O1167       O  0.23187932  0.29497427  0.43550789    -0.70600
O1168       O  0.19730336  0.30896266  0.39347813    -0.61800
O1169       O  0.21533143  0.32831229  0.42251412    -0.74300
O1170       O  0.21387261  0.27539873  0.40593344    -0.73100
Cu1171     Cu  0.18927435  0.29628729  0.43336918     1.04600
Cu1172     Cu  0.21550701  0.30200659  0.41375620     1.04300
C1173       C  0.20123983  0.26440244  0.41212291     0.93200
C1174       C  0.20284492  0.33423923  0.43374136     0.92300
C1175       C  0.17962839  0.30853545  0.39611993     0.84500
C1176       C  0.22497837  0.29070160  0.45144262     0.90700
O1177       O  0.72250993  0.26671453  0.11725476    -0.73000
O1178       O  0.72328186  0.32100460  0.10465250    -0.74000
O1179       O  0.70580987  0.29890275  0.13276600    -0.62600
O1180       O  0.73959079  0.28852920  0.08908277    -0.71000
O1181       O  0.71463447  0.28612761  0.07094056    -0.70600
O1182       O  0.68119015  0.29351984  0.11470967    -0.61800
O1183       O  0.69751189  0.31751897  0.08797211    -0.74300
O1184       O  0.69838252  0.26218222  0.09829369    -0.73100
Cu1185     Cu  0.72369247  0.29391025  0.11154613     1.04600
Cu1186     Cu  0.69710895  0.28967716  0.09228134     1.04300
C1187       C  0.71034113  0.25591069  0.10995843     0.93200
C1188       C  0.71025091  0.32806409  0.09478459     0.92300
C1189       C  0.68811494  0.29760929  0.13059467     0.84500
C1190       C  0.73234069  0.28600540  0.07298219     0.90700
O1191       O  0.57867543  0.29827796  0.27599398    -0.73000
O1192       O  0.62565623  0.32780331  0.28505846    -0.74000
O1193       O  0.59440864  0.31740953  0.30684192    -0.62600
O1194       O  0.61034697  0.30863576  0.25428282    -0.71000
O1195       O  0.59546779  0.33428377  0.24513857    -0.70600
O1196       O  0.58032202  0.34372416  0.29838542    -0.61800
O1197       O  0.61136400  0.35355090  0.27557764    -0.74300
O1198       O  0.56383864  0.32421530  0.26822230    -0.73100
Cu1199     Cu  0.60269743  0.31210741  0.28080294     1.04600
Cu1200     Cu  0.58715512  0.33981758  0.27146668     1.04300
C1201       C  0.56360869  0.30660917  0.27133616     0.93200
C1202       C  0.62603728  0.34530949  0.28149841     0.92300
C1203       C  0.58521686  0.33208535  0.31099211     0.84500
C1204       C  0.60604558  0.32036040  0.24157970     0.90700
O1205       O  0.73742445  0.10232219  0.23952767    -0.73000
O1206       O  0.72266058  0.14366929  0.20488247    -0.74000
O1207       O  0.70405641  0.11287397  0.22128549    -0.62600
O1208       O  0.75608461  0.13350979  0.22330936    -0.71000
O1209       O  0.76434936  0.11593295  0.19911661    -0.70600
O1210       O  0.71161644  0.09588500  0.19647768    -0.61800
O1211       O  0.73134042  0.12652295  0.18058881    -0.74300
O1212       O  0.74470509  0.08484906  0.21497095    -0.73100
Cu1213     Cu  0.72983041  0.12367356  0.22312759     1.04600
Cu1214     Cu  0.73832242  0.10513301  0.19697656     1.04300
C1215       C  0.74284228  0.08680651  0.23259919     0.93200
C1216       C  0.72489794  0.14172422  0.18727201     0.92300
C1217       C  0.69948895  0.10142727  0.20839083     0.84500
C1218       C  0.76830272  0.12831175  0.21138625     0.90700
O1219       O  0.89302582  0.24330337  0.25974362    -0.73000
O1220       O  0.91566122  0.23981752  0.20863175    -0.74000
O1221       O  0.88268674  0.22551337  0.22570866    -0.62600
O1222       O  0.92603752  0.25722243  0.24265760    -0.71000
O1223       O  0.94192899  0.23159533  0.24911253    -0.70600
O1224       O  0.89719284  0.20033418  0.23615773    -0.61800
O1225       O  0.92916019  0.21316057  0.21643867    -0.74300
O1226       O  0.90941220  0.21861637  0.26890299    -0.73100
Cu1227     Cu  0.90383297  0.24236418  0.23392514     1.04600
Cu1228     Cu  0.91999985  0.21506613  0.24299569     1.04300
C1229       C  0.89761250  0.23155386  0.27234386     0.93200
C1230       C  0.92559651  0.22569703  0.20421821     0.92300
C1231       C  0.88295096  0.20785960  0.22853973     0.84500
C1232       C  0.94116793  0.24940012  0.24792230     0.90700
O1233       O  0.81057932  0.24569055  0.39517744    -0.73000
O1234       O  0.78481489  0.25639605  0.44469313    -0.74000
O1235       O  0.79409337  0.27747480  0.41106468    -0.62600
O1236       O  0.80103864  0.22473507  0.42758110    -0.71000
O1237       O  0.82780367  0.23206921  0.44109141    -0.70600
O1238       O  0.82144125  0.28535890  0.42317852    -0.61800
O1239       O  0.81216280  0.26447819  0.45682748    -0.74300
O1240       O  0.83782182  0.25262941  0.40823531    -0.73100
Cu1241     Cu  0.79664316  0.25091403  0.41927062     1.04600
Cu1242     Cu  0.82571045  0.25899442  0.43280524     1.04300
C1243       C  0.82833413  0.24756613  0.39400163     0.93200
C1244       C  0.79474116  0.26111400  0.45883489     0.92300
C1245       C  0.80710600  0.28948698  0.41331749     0.84500
C1246       C  0.81523981  0.21994651  0.43717095     0.90700
O1247       O  0.81132164  0.43259065  0.29702783    -0.73000
O1248       O  0.76057528  0.41064553  0.28921447    -0.74000
O1249       O  0.77878700  0.44395712  0.27738088    -0.62600
O1250       O  0.79293508  0.39955521  0.30946050    -0.71000
O1251       O  0.78183519  0.41440496  0.33422936    -0.70600
O1252       O  0.76964780  0.45883540  0.30281519    -0.61800
O1253       O  0.74995908  0.42590506  0.31406016    -0.74300
O1254       O  0.80142257  0.44712066  0.32260603    -0.73100
Cu1255     Cu  0.78624389  0.42116817  0.29237181     1.04600
Cu1256     Cu  0.77532260  0.43707925  0.31927607     1.04300
C1257       C  0.81443156  0.44320501  0.31100571     0.93200
C1258       C  0.74729777  0.41470930  0.30039155     0.92300
C1259       C  0.77235927  0.45868063  0.28519114     0.84500
C1260       C  0.78946720  0.40000314  0.32701647     0.90700
O1261       O  0.81109217  0.80640351  0.12938510    -0.73000
O1262       O  0.78073590  0.79205437  0.08478055    -0.74000
O1263       O  0.79446755  0.77304972  0.11655196    -0.62600
O1264       O  0.79731153  0.82536471  0.09801955    -0.71000
O1265       O  0.82373515  0.81872653  0.08304210    -0.70600
O1266       O  0.82017477  0.76582051  0.10064719    -0.61800
O1267       O  0.80672823  0.78608047  0.06901130    -0.74300
O1268       O  0.83697580  0.79856810  0.11434239    -0.73100
Cu1269     Cu  0.79495343  0.79939444  0.10765833     1.04600
Cu1270     Cu  0.82278272  0.79200017  0.09113890     1.04300
C1271       C  0.82884012  0.80461368  0.12903329     0.93200
C1272       C  0.78894163  0.78739734  0.06963745     0.92300
C1273       C  0.80708034  0.76136282  0.11194367     0.84500
C1274       C  0.81124182  0.83038999  0.08808071     0.90700
O1275       O  0.76263802  0.93263680  0.32818019    -0.73000
O1276       O  0.70785913  0.94535248  0.32688551    -0.74000
O1277       O  0.72937135  0.91562735  0.34138944    -0.62600
O1278       O  0.74087614  0.96271253  0.31407642    -0.71000
O1279       O  0.73892038  0.94782657  0.28699009    -0.70600
O1280       O  0.72529260  0.90073467  0.31454178    -0.61800
O1281       O  0.70527438  0.93105342  0.29946133    -0.74300
O1282       O  0.75906555  0.91718325  0.30150915    -0.73100
Cu1283     Cu  0.73533186  0.93962989  0.32856584     1.04600
Cu1284     Cu  0.73209220  0.92368959  0.29966717     1.04300
C1285       C  0.76936824  0.92267595  0.31496928     0.93200
C1286       C  0.69796063  0.94000193  0.31301021     0.92300
C1287       C  0.72510033  0.90082928  0.33241335     0.84500
C1288       C  0.74161345  0.96284943  0.29627392     0.90700
O1289       O  0.91648575  0.82105016  0.31124824    -0.73000
O1290       O  0.89656950  0.81589459  0.25952466    -0.74000
O1291       O  0.92844689  0.80233197  0.27862353    -0.62600
O1292       O  0.88508516  0.83495081  0.29230602    -0.71000
O1293       O  0.90080733  0.85992390  0.28267950    -0.70600
O1294       O  0.94493324  0.82750850  0.27118663    -0.61800
O1295       O  0.91320189  0.84051852  0.25038045    -0.74300
O1296       O  0.93186041  0.84679509  0.30309997    -0.73100
Cu1297     Cu  0.90611449  0.81766707  0.28563475     1.04600
Cu1298     Cu  0.92330909  0.84453488  0.27641934     1.04300
C1299       C  0.92678769  0.83497340  0.31552905     0.93200
C1300       C  0.90154664  0.82740888  0.24683595     0.92300
C1301       C  0.94385965  0.80984049  0.27356020     0.84500
C1302       C  0.88615783  0.85261960  0.28984103     0.90700
O1303       O  0.76033677  0.63399348  0.22150971    -0.73000
O1304       O  0.81210666  0.61317275  0.22026149    -0.74000
O1305       O  0.79447485  0.64559046  0.20590471    -0.62600
O1306       O  0.77780269  0.60109989  0.23585380    -0.71000
O1307       O  0.77183316  0.58606252  0.20945897    -0.70600
O1308       O  0.78705224  0.63056541  0.17982897    -0.61800
O1309       O  0.80557149  0.59840230  0.19375391    -0.74300
O1310       O  0.75331219  0.61864030  0.19547239    -0.73100
Cu1311     Cu  0.78638150  0.62395285  0.22185288     1.04600
Cu1312     Cu  0.77916939  0.60784190  0.19376839     1.04300
C1313       C  0.74891633  0.63018669  0.20835435     0.93200
C1314       C  0.81705236  0.60265881  0.20673417     0.92300
C1315       C  0.79289125  0.64522078  0.18812480     0.84500
C1316       C  0.77285511  0.58624460  0.22725499     0.90700
O1317       O  0.71908915  0.77182199  0.40099538    -0.73000
O1318       O  0.71622705  0.71803802  0.41599453    -0.74000
O1319       O  0.70376908  0.73904854  0.38495121    -0.62600
O1320       O  0.73154454  0.75049494  0.43237661    -0.71000
O1321       O  0.70467203  0.75496229  0.44701067    -0.70600
O1322       O  0.67698712  0.74534764  0.39922764    -0.61800
O1323       O  0.68899947  0.72352424  0.42991068    -0.74300
O1324       O  0.69255968  0.77759807  0.41602241    -0.73100
Cu1325     Cu  0.71862793  0.74476315  0.40809383     1.04600
Cu1326     Cu  0.68989915  0.75065597  0.42356448     1.04300
C1327       C  0.70606748  0.78306607  0.40567148     0.93200
C1328       C  0.70207924  0.71234658  0.42528573     0.92300
C1329       C  0.68595891  0.74028088  0.38463891     0.84500
C1330       C  0.72245317  0.75345797  0.44746669     0.90700
O1331       O  0.62968374  0.72206927  0.21990047    -0.73000
O1332       O  0.58292850  0.74735679  0.23797052    -0.74000
O1333       O  0.61666289  0.73488619  0.25500177    -0.62600
O1334       O  0.59674820  0.73431543  0.20259067    -0.71000
O1335       O  0.58445110  0.70627146  0.20796482    -0.70600
O1336       O  0.60313143  0.70752240  0.26088208    -0.61800
O1337       O  0.56963780  0.71983405  0.24229326    -0.74300
O1338       O  0.61722487  0.69454540  0.22651154    -0.73100
Cu1339     Cu  0.60685590  0.73566760  0.22875088     1.04600
Cu1340     Cu  0.59305200  0.70613253  0.23464848     1.04300
C1341       C  0.63095668  0.70428403  0.22046860     0.93200
C1342       C  0.56863072  0.73767791  0.24263399     0.92300
C1343       C  0.61353607  0.72112732  0.26595968     0.84500
C1344       C  0.58825134  0.71970860  0.19681848     0.90700
C1345       C  0.67559544  0.73565279  0.36732443     0.01300
C1346       C  0.66012565  0.72331887  0.36801956     0.04100
C1347       C  0.65009796  0.71912634  0.35162616    -0.12000
C1348       C  0.65516068  0.72751943  0.33453762     0.23400
C1349       C  0.67079370  0.73952631  0.33372285    -0.12500
C1350       C  0.68106071  0.74351344  0.35002354     0.04800
C1351       C  0.64354337  0.72447334  0.31759322     0.27200
C1352       C  0.64933107  0.71181689  0.30364684    -0.13200
C1353       C  0.63877955  0.70983622  0.28716331     0.05300
C1354       C  0.62269942  0.72086063  0.28438378    -0.09200
C1355       C  0.61659055  0.73302866  0.29854186     0.06100
C1356       C  0.62692400  0.73477053  0.31516781    -0.13600
Br1357     Br  0.67790022  0.75079161  0.31022367    -0.05600
Br1358     Br  0.65285344  0.71158999  0.39126525     0.00000
Br1359     Br  0.64673033  0.69249321  0.26811020     0.00400
Br1360     Br  0.61868300  0.75176789  0.33438301    -0.04000
Br1361     Br  0.70194197  0.76063957  0.34863770     0.00500
Br1362     Br  0.62940688  0.70177673  0.35244306    -0.03300
Br1363     Br  0.67214223  0.69782747  0.30681866    -0.04100
Br1364     Br  0.59401252  0.74726521  0.29501071    -0.00200
C1365       C  0.73088964  0.64008233  0.20766961     0.01300
C1366       C  0.71879757  0.63956374  0.22321632     0.04100
C1367       C  0.70276144  0.65085578  0.22354403    -0.12000
C1368       C  0.69854238  0.66238978  0.20815963     0.23400
C1369       C  0.71034123  0.66261672  0.19241167    -0.12500
C1370       C  0.72656811  0.65155819  0.19217909     0.04800
C1371       C  0.68157189  0.67417182  0.20868640     0.27200
C1372       C  0.66424210  0.66649942  0.20355376    -0.13200
C1373       C  0.64772903  0.67673049  0.20639819     0.05300
C1374       C  0.64849792  0.69479413  0.21454956    -0.09200
C1375       C  0.66621982  0.70311286  0.21793896     0.06100
C1376       C  0.68264150  0.69265698  0.21525124    -0.13600
Br1377     Br  0.70439367  0.67846649  0.17141343    -0.05600
Br1378     Br  0.72388640  0.62290194  0.24380081     0.00000
Br1379     Br  0.62432837  0.66597321  0.19817623     0.00400
Br1380     Br  0.70674379  0.70330153  0.22123104    -0.04000
Br1381     Br  0.74332284  0.65310856  0.17104557     0.00500
Br1382     Br  0.68670445  0.65092730  0.24524595    -0.03300
Br1383     Br  0.66331243  0.64169424  0.19293892    -0.04100
Br1384     Br  0.66865114  0.72850276  0.22689047    -0.00200
C1385       C  0.78913882  0.91699632  0.31504660     0.01300
C1386       C  0.80049591  0.92118032  0.29945937     0.04100
C1387       C  0.81811483  0.91277260  0.29761656    -0.12000
C1388       C  0.82418081  0.89976353  0.31104723     0.23400
C1389       C  0.81353427  0.89669465  0.32734681    -0.12500
C1390       C  0.79601250  0.90537666  0.32940212     0.04800
C1391       C  0.84014912  0.88741472  0.30653688     0.27200
C1392       C  0.83692754  0.87124296  0.29577855    -0.13200
C1393       C  0.85193845  0.85982676  0.29038296     0.05300
C1394       C  0.87037234  0.86469545  0.29549661    -0.09200
C1395       C  0.87357745  0.88100235  0.30626583     0.06100
C1396       C  0.85842908  0.89219702  0.31193713    -0.13600
Br1397     Br  0.82253218  0.87971612  0.34622499    -0.05600
Br1398     Br  0.79162721  0.93789685  0.28023910     0.00000
Br1399     Br  0.84710248  0.83812246  0.27504758     0.00400
Br1400     Br  0.86254445  0.91411745  0.32709678    -0.04000
Br1401     Br  0.78069528  0.89980364  0.35093447     0.00500
Br1402     Br  0.83362249  0.91817001  0.27617980    -0.03300
Br1403     Br  0.81180795  0.86502284  0.28805050    -0.04100
Br1404     Br  0.89856034  0.88793619  0.31382568    -0.00200
C1405       C  0.71990084  0.88381098  0.34300149     0.01300
C1406       C  0.70808916  0.88524215  0.35883227     0.04100
C1407       C  0.70481646  0.86952493  0.37019071    -0.12000
C1408       C  0.71230496  0.85208428  0.36517609     0.23400
C1409       C  0.72304594  0.85032877  0.34875952    -0.12500
C1410       C  0.72728614  0.86621707  0.33795004     0.04800
C1411       C  0.70952838  0.83563261  0.37746065     0.27200
C1412       C  0.72373074  0.83039785  0.39000854    -0.13200
C1413       C  0.72220526  0.81358030  0.40007907     0.05300
C1414       C  0.70624624  0.80218938  0.39795814    -0.09200
C1415       C  0.69136589  0.80821358  0.38649356     0.06100
C1416       C  0.69314643  0.82479071  0.37604609    -0.13600
Br1417     Br  0.73216837  0.82606786  0.34131271    -0.05600
Br1418     Br  0.69553938  0.90842252  0.36467250     0.00000
Br1419     Br  0.74190111  0.80621625  0.41691198     0.00400
Br1420     Br  0.67358268  0.83225769  0.35908618    -0.04000
Br1421     Br  0.74437482  0.86384383  0.31715803     0.00500
Br1422     Br  0.69052439  0.87188251  0.39296595    -0.03300
Br1423     Br  0.74542720  0.84618890  0.39301083    -0.04100
Br1424     Br  0.66899875  0.79325217  0.38401931    -0.00200
C1425       C  0.80700024  0.74292614  0.12077868     0.01300
C1426       C  0.79213228  0.73045593  0.11749537     0.04100
C1427       C  0.79076171  0.71391531  0.12798076    -0.12000
C1428       C  0.80421478  0.70998422  0.14177097     0.23400
C1429       C  0.81941758  0.72214795  0.14461506    -0.12500
C1430       C  0.82081604  0.73865293  0.13412351     0.04800
C1431       C  0.80191186  0.69350411  0.15392083     0.27200
C1432       C  0.79207756  0.69521672  0.17086311    -0.13200
C1433       C  0.78943029  0.67949190  0.18231443     0.05300
C1434       C  0.79701672  0.66205282  0.17696492    -0.09200
C1435       C  0.80718017  0.66051777  0.16007354     0.06100
C1436       C  0.80945784  0.67622370  0.14851020    -0.13600
Br1437     Br  0.83787166  0.71646669  0.16341819    -0.05600
Br1438     Br  0.77369205  0.73614665  0.09869764     0.00000
Br1439     Br  0.77403416  0.68182697  0.20442459     0.00400
Br1440     Br  0.82260988  0.67417011  0.12502843    -0.04000
Br1441     Br  0.84093306  0.75599359  0.13904839     0.00500
Br1442     Br  0.77024895  0.69685263  0.12391494    -0.03300
Br1443     Br  0.78185295  0.71913533  0.17805769    -0.04100
Br1444     Br  0.81841734  0.63710002  0.15277415    -0.00200
C1445       C  0.89313119  0.82570333  0.22812318     0.01300
C1446       C  0.88162919  0.84012620  0.22120826     0.04100
C1447       C  0.87175336  0.83759024  0.20440989    -0.12000
C1448       C  0.87346305  0.82071712  0.19444008     0.23400
C1449       C  0.88534543  0.80652081  0.20104115    -0.12500
C1450       C  0.89504194  0.80892979  0.21794837     0.04800
C1451       C  0.86181562  0.81732731  0.17768788     0.27200
C1452       C  0.84422958  0.80873093  0.17970716    -0.13200
C1453       C  0.83339088  0.80460934  0.16386584     0.05300
C1454       C  0.84002546  0.80938646  0.14580849    -0.09200
C1455       C  0.85755550  0.81847865  0.14392411     0.06100
C1456       C  0.86845212  0.82224169  0.15984362    -0.13600
Br1457     Br  0.88778500  0.78355960  0.18709507    -0.05600
Br1458     Br  0.87812335  0.86273694  0.23548563     0.00000
Br1459     Br  0.81002202  0.79137450  0.16729344     0.00400
Br1460     Br  0.89263247  0.83401182  0.15735459    -0.04000
Br1461     Br  0.91081094  0.78915615  0.22724001     0.00500
Br1462     Br  0.85514825  0.85679816  0.19540798    -0.03300
Br1463     Br  0.83519838  0.80234112  0.20436217    -0.04100
Br1464     Br  0.86658180  0.82671207  0.11978789    -0.00200
C1465       C  0.76938444  0.56862205  0.23755991     0.01300
C1466       C  0.75511314  0.55635786  0.23146882     0.04100
C1467       C  0.75436399  0.53791203  0.23820344    -0.12000
C1468       C  0.76722557  0.53189575  0.25175237     0.23400
C1469       C  0.78074883  0.54438366  0.25874444    -0.12500
C1470       C  0.78195143  0.56268735  0.25162844     0.04800
C1471       C  0.76674174  0.51234621  0.25859073     0.27200
C1472       C  0.75492747  0.50742561  0.27348747    -0.13200
C1473       C  0.75538938  0.48920443  0.28085622     0.05300
C1474       C  0.76875896  0.47611155  0.27427450    -0.09200
C1475       C  0.77985608  0.48089423  0.25847607     0.06100
C1476       C  0.77850689  0.49886543  0.25051690    -0.13600
Br1477     Br  0.79824531  0.53596181  0.27746737    -0.05600
Br1478     Br  0.73616874  0.56485785  0.21424611     0.00000
Br1479     Br  0.73684796  0.48230479  0.29931643     0.00400
Br1480     Br  0.79313138  0.50545143  0.22874286    -0.04000
Br1481     Br  0.80181297  0.57880946  0.26041086     0.00500
Br1482     Br  0.73638626  0.52047989  0.22817266    -0.03300
Br1483     Br  0.73857375  0.52603395  0.28417556    -0.04100
Br1484     Br  0.79779143  0.46373717  0.24790018    -0.00200
C1485       C  0.80597065  0.30757951  0.40298742     0.01300
C1486       C  0.82160021  0.31426347  0.39269307     0.04100
C1487       C  0.81955048  0.32928543  0.38007523    -0.12000
C1488       C  0.80208159  0.33799152  0.37782852     0.23400
C1489       C  0.78670648  0.33193130  0.38854063    -0.12500
C1490       C  0.78856259  0.31675167  0.40096309     0.04800
C1491       C  0.79986192  0.35368381  0.36431989     0.27200
C1492       C  0.80411067  0.37206688  0.36986155    -0.13200
C1493       C  0.80162036  0.38704593  0.35734075     0.05300
C1494       C  0.79409082  0.38385304  0.33931008    -0.09200
C1495       C  0.79003177  0.36529502  0.33371343     0.06100
C1496       C  0.79315601  0.35028164  0.34612194    -0.13600
Br1497     Br  0.76295722  0.34439807  0.38585707    -0.05600
Br1498     Br  0.84566249  0.30215875  0.39438426     0.00000
Br1499     Br  0.80940131  0.41179886  0.36492065     0.00400
Br1500     Br  0.78790366  0.32494974  0.33842987    -0.04000
Br1501     Br  0.76705206  0.30879882  0.41524275     0.00500
Br1502     Br  0.84049225  0.33760658  0.36514977    -0.03300
Br1503     Br  0.81293816  0.37667058  0.39492432    -0.04100
Br1504     Br  0.77900778  0.36024041  0.30960783    -0.00200
C1505       C  0.88862626  0.23276655  0.29083406     0.01300
C1506       C  0.87397922  0.22037869  0.29543173     0.04100
C1507       C  0.86375317  0.22293797  0.31204316    -0.12000
C1508       C  0.86861245  0.23744802  0.32444615     0.23400
C1509       C  0.88380491  0.24932124  0.32022710    -0.12500
C1510       C  0.89362539  0.24715273  0.30330031     0.04800
C1511       C  0.85804311  0.23988758  0.34215412     0.27200
C1512       C  0.84282572  0.25232195  0.34304523    -0.13200
C1513       C  0.83312026  0.25488890  0.36000357     0.05300
C1514       C  0.83805782  0.24437969  0.37595707    -0.09200
C1515       C  0.85297153  0.23153887  0.37479152     0.06100
C1516       C  0.86320620  0.22964309  0.35810157    -0.13600
Br1517     Br  0.89113884  0.26845160  0.33773873    -0.05600
Br1518     Br  0.86774525  0.20007787  0.27880517     0.00000
Br1519     Br  0.81386155  0.27365600  0.36156980     0.00400
Br1520     Br  0.88454752  0.21319359  0.35702284    -0.04000
Br1521     Br  0.91414157  0.26363273  0.29723357     0.00500
Br1522     Br  0.84280312  0.20686331  0.31769063    -0.03300
Br1523     Br  0.83537166  0.26583196  0.32096485    -0.04100
Br1524     Br  0.85885815  0.21568316  0.39561342    -0.00200
C1525       C  0.74593117  0.07051906  0.24480752     0.01300
C1526       C  0.73189837  0.06505205  0.25762914     0.04100
C1527       C  0.73343091  0.04795569  0.26713688    -0.12000
C1528       C  0.74850922  0.03594190  0.26328731     0.23400
C1529       C  0.76285961  0.04164147  0.25106911    -0.12500
C1530       C  0.76176403  0.05908698  0.24211268     0.04800
C1531       C  0.74821556  0.01668003  0.27074813     0.27200
C1532       C  0.75914181  0.01187209  0.28632972    -0.13200
C1533       C  0.75804306  0.99372810  0.29379836     0.05300
C1534       C  0.74496449  0.98076543  0.28653256    -0.09200
C1535       C  0.73401841  0.98570911  0.27085824     0.06100
C1536       C  0.73622415  0.00337504  0.26258312    -0.13600
Br1537     Br  0.78339839  0.02501867  0.24577494    -0.05600
Br1538     Br  0.70945467  0.07971863  0.26077100     0.00000
Br1539     Br  0.77495068  0.98667396  0.31360707     0.00400
Br1540     Br  0.72243169  0.00967260  0.24024604    -0.04000
Br1541     Br  0.78198268  0.06723889  0.22614247     0.00500
Br1542     Br  0.71428010  0.04035788  0.28466401    -0.03300
Br1543     Br  0.77505288  0.03041135  0.29781407    -0.04100
Br1544     Br  0.71456923  0.96935078  0.26164610    -0.00200
C1545       C  0.86668004  0.19593809  0.22325815     0.01300
C1546       C  0.86958143  0.17764122  0.21618691     0.04100
C1547       C  0.85426627  0.16567969  0.21290106    -0.12000
C1548       C  0.83594385  0.17197922  0.21608734     0.23400
C1549       C  0.83288642  0.19045531  0.22211859    -0.12500
C1550       C  0.84813467  0.20234341  0.22595866     0.04800
C1551       C  0.81982350  0.15901043  0.21391523     0.27200
C1552       C  0.80923038  0.15903837  0.19733537    -0.13200
C1553       C  0.79270269  0.14835920  0.19618586     0.05300
C1554       C  0.78688876  0.13736859  0.21154327    -0.09200
C1555       C  0.79808460  0.13653690  0.22771577     0.06100
C1556       C  0.81449754  0.14735887  0.22891143    -0.13600
Br1557     Br  0.80760668  0.19928107  0.22547142    -0.05600
Br1558     Br  0.89439264  0.16885274  0.21013780     0.00000
Br1559     Br  0.77736300  0.14995495  0.17407769     0.00400
Br1560     Br  0.82955401  0.14659959  0.25125118    -0.04000
Br1561     Br  0.84315521  0.22684997  0.23616151     0.00500
Br1562     Br  0.85824836  0.14045490  0.20421838    -0.03300
Br1563     Br  0.81721292  0.17413606  0.17643273    -0.04100
Br1564     Br  0.79098767  0.12041422  0.24817455    -0.00200
C1565       C  0.64366165  0.35606289  0.28393327     0.01300
C1566       C  0.66085514  0.34864498  0.27751495     0.04100
C1567       C  0.67749880  0.35896061  0.27963731    -0.12000
C1568       C  0.67713666  0.37673001  0.28804503     0.23400
C1569       C  0.66009189  0.38427326  0.29426992    -0.12500
C1570       C  0.64341357  0.37395378  0.29238825     0.04800
C1571       C  0.69486175  0.38702576  0.29132156     0.27200
C1572       C  0.70446177  0.38459131  0.30832280    -0.13200
C1573       C  0.72159598  0.39375763  0.31134231     0.05300
C1574       C  0.72886888  0.40591553  0.29761605    -0.09200
C1575       C  0.71908420  0.40865365  0.28074426     0.06100
C1576       C  0.70225074  0.39897131  0.27747189    -0.13600
Br1577     Br  0.65981864  0.40872551  0.30567686    -0.05600
Br1578     Br  0.66188212  0.32466302  0.26512088     0.00000
Br1579     Br  0.73572646  0.38858567  0.33371153     0.00400
Br1580     Br  0.68949507  0.40168192  0.25390395    -0.04000
Br1581     Br  0.62058043  0.38403494  0.30264679     0.00500
Br1582     Br  0.70099120  0.34878979  0.27113176    -0.03300
Br1583     Br  0.69420853  0.36835609  0.32731115    -0.04100
Br1584     Br  0.72850679  0.42608244  0.26236670    -0.00200
C1585       C  0.70980316  0.23626470  0.11607058     0.01300
C1586       C  0.69377900  0.22929525  0.12528988     0.04100
C1587       C  0.69485839  0.21254066  0.13551491    -0.12000
C1588       C  0.71171859  0.20245139  0.13594666     0.23400
C1589       C  0.72710152  0.20842048  0.12518386    -0.12500
C1590       C  0.72627372  0.22548844  0.11551742     0.04800
C1591       C  0.71410856  0.18690611  0.14935397     0.27200
C1592       C  0.72313652  0.19037969  0.16648108    -0.13200
C1593       C  0.72661977  0.17562392  0.17892001     0.05300
C1594       C  0.72052518  0.15734127  0.17451907    -0.09200
C1595       C  0.71100637  0.15399529  0.15751318     0.06100
C1596       C  0.70801388  0.16875569  0.14487579    -0.13600
Br1597     Br  0.74965394  0.19366019  0.12472210    -0.05600
Br1598     Br  0.67085672  0.24347212  0.12550450     0.00000
Br1599     Br  0.74108701  0.18052459  0.20121132     0.00400
Br1600     Br  0.69586753  0.16419807  0.12124669    -0.04000
Br1601     Br  0.74792791  0.23440145  0.10203809     0.00500
Br1602     Br  0.67378134  0.20413849  0.15016889    -0.03300
Br1603     Br  0.73106930  0.21546028  0.17270496    -0.04100
Br1604     Br  0.70148268  0.12940827  0.15156044    -0.00200
C1605       C  0.67532178  0.30091303  0.14641535     0.01300
C1606       C  0.67762564  0.29115084  0.16340700     0.04100
C1607       C  0.66487749  0.29391267  0.17813905    -0.12000
C1608       C  0.64973819  0.30627329  0.17585772     0.23400
C1609       C  0.64721744  0.31570064  0.15878691    -0.12500
C1610       C  0.66012742  0.31327996  0.14419698     0.04800
C1611       C  0.63728392  0.31052273  0.19183501     0.27200
C1612       C  0.62251133  0.29834522  0.19662135    -0.13200
C1613       C  0.61134733  0.30217488  0.21235887     0.05300
C1614       C  0.61476094  0.31830755  0.22309283    -0.09200
C1615       C  0.62882902  0.33103293  0.21763449     0.06100
C1616       C  0.64029183  0.32696814  0.20223602    -0.13600
Br1617     Br  0.62605017  0.33206295  0.15554148    -0.05600
Br1618     Br  0.69778637  0.27348928  0.16638577     0.00000
Br1619     Br  0.59121161  0.28554176  0.21922242     0.00400
Br1620     Br  0.66075348  0.34347607  0.19587453    -0.04000
Br1621     Br  0.65755460  0.32793299  0.12164631     0.00500
Br1622     Br  0.66811427  0.28082225  0.20150504    -0.03300
Br1623     Br  0.61793820  0.27625261  0.18188622    -0.04100
Br1624     Br  0.63312337  0.35362564  0.23174214    -0.00200
C1625       C  0.04565971  0.30848156  0.25535774     0.01300
C1626       C  0.03297037  0.31214351  0.27005632     0.04100
C1627       C  0.01572130  0.30259639  0.27088478    -0.12000
C1628       C  0.01103543  0.28943292  0.25702067     0.23400
C1629       C  0.02375178  0.28558896  0.24248635    -0.12500
C1630       C  0.04088244  0.29522593  0.24149182     0.04800
C1631       C  0.99225322  0.28050906  0.25674092     0.27200
C1632       C  0.98866001  0.26425488  0.26722699    -0.13200
C1633       C  0.97144235  0.25481472  0.26536503     0.05300
C1634       C  0.95812915  0.26090295  0.25199787    -0.09200
C1635       C  0.96176540  0.27756414  0.24178159     0.06100
C1636       C  0.97844153  0.28760545  0.24473755    -0.13600
Br1637     Br  0.01738457  0.26730789  0.22364797    -0.05600
Br1638     Br  0.03914086  0.33011024  0.28918709     0.00000
Br1639     Br  0.96621908  0.23397495  0.28178926     0.00400
Br1640     Br  0.98279260  0.31103420  0.23195685    -0.04000
Br1641     Br  0.05688357  0.29137335  0.22005128     0.00500
Br1642     Br  0.99829112  0.30766639  0.29081991    -0.03300
Br1643     Br  0.00768320  0.25468409  0.28373809    -0.04100
Br1644     Br  0.94517286  0.28619998  0.22230522    -0.00200
C1645       C  0.11024862  0.33661946  0.30336615     0.01300
C1646       C  0.12394043  0.34962556  0.30906730     0.04100
C1647       C  0.13332941  0.34708188  0.32613969    -0.12000
C1648       C  0.12906155  0.33152581  0.33745454     0.23400
C1649       C  0.11397339  0.31976061  0.33272968    -0.12500
C1650       C  0.10462221  0.32225106  0.31562647     0.04800
C1651       C  0.14202949  0.32597218  0.35262325     0.27200
C1652       C  0.15656797  0.31333321  0.34858834    -0.13200
C1653       C  0.16881805  0.30750471  0.36278503     0.05300
C1654       C  0.16678429  0.31457245  0.38109402    -0.09200
C1655       C  0.15241310  0.32756484  0.38501225     0.06100
C1656       C  0.14000858  0.33314206  0.37081040    -0.13600
Br1657     Br  0.10679931  0.29977441  0.34937656    -0.05600
Br1658     Br  0.13096608  0.37000825  0.29281913     0.00000
Br1659     Br  0.18772822  0.28911357  0.35715221     0.00400
Br1660     Br  0.12034177  0.35075534  0.37610436    -0.04000
Br1661     Br  0.08433285  0.30586161  0.30877268     0.00500
Br1662     Br  0.15276305  0.36423329  0.33362150    -0.03300
Br1663     Br  0.15969246  0.30409710  0.32340818    -0.04100
Br1664     Br  0.15017597  0.33859251  0.40955900    -0.00200
C1665       C  0.45818431  0.24788303  0.27725235     0.01300
C1666       C  0.46388904  0.26164237  0.29029383     0.04100
C1667       C  0.48006959  0.27238848  0.28697868    -0.12000
C1668       C  0.49176205  0.26830917  0.27166169     0.23400
C1669       C  0.48628494  0.25451347  0.25870893    -0.12500
C1670       C  0.46921623  0.24485753  0.26108151     0.04800
C1671       C  0.51054608  0.27732488  0.27038145     0.27200
C1672       C  0.51411286  0.29179487  0.25747507    -0.13200
C1673       C  0.53178085  0.30063120  0.25700031     0.05300
C1674       C  0.54565453  0.29593404  0.27032797    -0.09200
C1675       C  0.54184730  0.28145849  0.28338049     0.06100
C1676       C  0.52468202  0.27181085  0.28287988    -0.13600
Br1677     Br  0.50253967  0.24839932  0.23806196    -0.05600
Br1678     Br  0.45089389  0.26471190  0.31379006     0.00000
Br1679     Br  0.53695754  0.31852945  0.23742124     0.00400
Br1680     Br  0.52026836  0.25103151  0.29963954    -0.04000
Br1681     Br  0.46079301  0.22814097  0.24164015     0.00500
Br1682     Br  0.48654462  0.29260528  0.30367274    -0.03300
Br1683     Br  0.49452959  0.29987736  0.24082486    -0.04100
Br1684     Br  0.55913015  0.27553370  0.30326594    -0.00200
C1685       C  0.27607201  0.14013004  0.31771544     0.01300
C1686       C  0.28299450  0.15295524  0.33101928     0.04100
C1687       C  0.30048133  0.16164007  0.32818875    -0.12000
C1688       C  0.31093791  0.15775133  0.31194297     0.23400
C1689       C  0.30413259  0.14475010  0.29881689    -0.12500
C1690       C  0.28681062  0.13587654  0.30174235     0.04800
C1691       C  0.32859898  0.16802097  0.30802346     0.27200
C1692       C  0.32804204  0.18482159  0.29778914    -0.13200
C1693       C  0.34472063  0.19415479  0.29306445     0.05300
C1694       C  0.36215081  0.18681279  0.29869777    -0.09200
C1695       C  0.36268939  0.16982790  0.30883097     0.06100
C1696       C  0.34591481  0.16060211  0.31365294    -0.13600
Br1697     Br  0.31849488  0.13938607  0.27662813    -0.05600
Br1698     Br  0.26804475  0.15954958  0.35250012     0.00000
Br1699     Br  0.34354698  0.21644590  0.27784690     0.00400
Br1700     Br  0.34646162  0.13794854  0.32829723    -0.04000
Br1701     Br  0.27802010  0.11747358  0.28406821     0.00500
Br1702     Br  0.31005923  0.17914706  0.34631502    -0.03300
Br1703     Br  0.30426203  0.19501509  0.29025671    -0.04100
Br1704     Br  0.38624109  0.15930404  0.31664454    -0.00200
C1705       C  0.20632038  0.16328320  0.35049724     0.01300
C1706       C  0.19577049  0.16234157  0.36716647     0.04100
C1707       C  0.19254808  0.17865153  0.37757544    -0.12000
C1708       C  0.19930792  0.19591651  0.37099755     0.23400
C1709       C  0.20827146  0.19713406  0.35352779    -0.12500
C1710       C  0.21212987  0.18080841  0.34341611     0.04800
C1711       C  0.19888416  0.21247764  0.38321423     0.27200
C1712       C  0.18288170  0.22381649  0.38405310    -0.13200
C1713       C  0.18324213  0.24036564  0.39458963     0.05300
C1714       C  0.19973982  0.24563665  0.40404338    -0.09200
C1715       C  0.21552043  0.23392033  0.40369017     0.06100
C1716       C  0.21506159  0.21730345  0.39332963    -0.13600
Br1717     Br  0.21599355  0.22120727  0.34395094    -0.05600
Br1718     Br  0.18535146  0.13887804  0.37560504     0.00000
Br1719     Br  0.16159413  0.25644524  0.39475010     0.00400
Br1720     Br  0.23684386  0.20142292  0.39233275    -0.04000
Br1721     Br  0.22687986  0.18261015  0.32081681     0.00500
Br1722     Br  0.17954583  0.17738347  0.40119389    -0.03300
Br1723     Br  0.16090484  0.21712198  0.36993909    -0.04100
Br1724     Br  0.23778838  0.24063511  0.41737014    -0.00200
C1725       C  0.14277710  0.36638354  0.23373234     0.01300
C1726       C  0.14081751  0.38020001  0.21970790     0.04100
C1727       C  0.15649512  0.39039637  0.21352416    -0.12000
C1728       C  0.17423893  0.38674470  0.22112267     0.23400
C1729       C  0.17633267  0.37267399  0.23475734    -0.12500
C1730       C  0.16066181  0.36248730  0.24105232     0.04800
C1731       C  0.19072657  0.39777627  0.21489230     0.27200
C1732       C  0.20056181  0.39260920  0.19862395    -0.13200
C1733       C  0.21652124  0.40275748  0.19309861     0.05300
C1734       C  0.22341867  0.41726658  0.20451455    -0.09200
C1735       C  0.21336311  0.42269259  0.22055714     0.06100
C1736       C  0.19677990  0.41325547  0.22547104    -0.13600
Br1737     Br  0.20079721  0.36741631  0.24474294    -0.05600
Br1738     Br  0.11690095  0.38449773  0.20796206     0.00000
Br1739     Br  0.22921085  0.39643010  0.17016050     0.00400
Br1740     Br  0.18241279  0.42126252  0.24683381    -0.04000
Br1741     Br  0.16375740  0.34364081  0.26010915     0.00500
Br1742     Br  0.15378168  0.40937520  0.19453135    -0.03300
Br1743     Br  0.19268424  0.37103382  0.18449207    -0.04100
Br1744     Br  0.22229692  0.44314560  0.23568943    -0.00200
C1745       C  0.28700505  0.38941097  0.16422570     0.01300
C1746       C  0.28062677  0.37181717  0.17055523     0.04100
C1747       C  0.28491798  0.35569319  0.16030860    -0.12000
C1748       C  0.29575072  0.35712816  0.14395622     0.23400
C1749       C  0.30198391  0.37461610  0.13750745    -0.12500
C1750       C  0.29764257  0.39080082  0.14763119     0.04800
C1751       C  0.30101856  0.34009274  0.13381908     0.27200
C1752       C  0.31744307  0.33053787  0.13881860    -0.13200
C1753       C  0.32192671  0.31365794  0.12993777     0.05300
C1754       C  0.30981630  0.30636411  0.11625388    -0.09200
C1755       C  0.29370980  0.31624525  0.11087813     0.06100
C1756       C  0.28926157  0.33311166  0.11972319    -0.13600
Br1757     Br  0.31669450  0.37621005  0.11491635    -0.05600
Br1758     Br  0.26567959  0.36961834  0.19296935     0.00000
Br1759     Br  0.34383838  0.29992992  0.13750675     0.00400
Br1760     Br  0.26655501  0.34612955  0.11338036    -0.04000
Br1761     Br  0.30739405  0.41460482  0.13925368     0.00500
Br1762     Br  0.27602351  0.33154043  0.16856577    -0.03300
Br1763     Br  0.33303988  0.34006368  0.15866833    -0.04100
Br1764     Br  0.27757344  0.30640789  0.09162285    -0.00200
C1765       C  0.38857367  0.22824261  0.23569128     0.01300
C1766       C  0.39172916  0.24541532  0.22648145     0.04100
C1767       C  0.38316866  0.24896187  0.20914788    -0.12000
C1768       C  0.37113778  0.23553753  0.20122048     0.23400
C1769       C  0.36753625  0.21864129  0.21067006    -0.12500
C1770       C  0.37643915  0.21486087  0.22774230     0.04800
C1771       C  0.36216172  0.23908708  0.18293486     0.27200
C1772       C  0.34464697  0.24790235  0.18220636    -0.13200
C1773       C  0.33578396  0.25067776  0.16492325     0.05300
C1774       C  0.34395148  0.24365771  0.14830497    -0.09200
C1775       C  0.36159743  0.23482812  0.14912277     0.06100
C1776       C  0.37082997  0.23295889  0.16637659    -0.13600
Br1777     Br  0.34986763  0.20098871  0.20040888    -0.05600
Br1778     Br  0.40810335  0.26390858  0.23736731     0.00000
Br1779     Br  0.31300334  0.26516850  0.16424887     0.00400
Br1780     Br  0.39536510  0.22186792  0.16753534    -0.04000
Br1781     Br  0.37121251  0.19168417  0.24060353     0.00500
Br1782     Br  0.38771661  0.27221802  0.19622931    -0.03300
Br1783     Br  0.33269963  0.25587895  0.20505290    -0.04100
Br1784     Br  0.37281392  0.22418889  0.12700364    -0.00200
C1785       C  0.24049151  0.26216523  0.96350220     0.01300
C1786       C  0.23564221  0.27710705  0.97551038     0.04100
C1787       C  0.24516210  0.27957134  0.99252606    -0.12000
C1788       C  0.25974549  0.26737609  0.99743113     0.23400
C1789       C  0.26545014  0.25330025  0.98494257    -0.12500
C1790       C  0.25564116  0.25040498  0.96820289     0.04800
C1791       C  0.26751767  0.26747970  0.01658843     0.27200
C1792       C  0.28206948  0.27976583  0.02153930    -0.13200
C1793       C  0.29069226  0.27810141  0.03913462     0.05300
C1794       C  0.28554717  0.26336161  0.05132936    -0.09200
C1795       C  0.27038964  0.25155379  0.04654016     0.06100
C1796       C  0.26115020  0.25397522  0.02942813    -0.13600
Br1797     Br  0.28627001  0.23739027  0.99139012    -0.05600
Br1798     Br  0.21607290  0.29440842  0.96878981     0.00000
Br1799     Br  0.30879958  0.29666003  0.04673161     0.00400
Br1800     Br  0.24009135  0.23823212  0.02307825    -0.04000
Br1801     Br  0.26198141  0.22904154  0.95294811     0.00500
Br1802     Br  0.23786723  0.29922300  0.00947364    -0.03300
Br1803     Br  0.29056586  0.29837311  0.00391318    -0.04100
Br1804     Br  0.26286432  0.23098314  0.06243509    -0.00200
C1805       C  0.23005042  0.38789445  0.84912550     0.01300
C1806       C  0.23696491  0.37016614  0.84400477     0.04100
C1807       C  0.23126246  0.35419608  0.85393738    -0.12000
C1808       C  0.21937671  0.35598342  0.86952991     0.23400
C1809       C  0.21253913  0.37361212  0.87477509    -0.12500
C1810       C  0.21767666  0.38955694  0.86449060     0.04800
C1811       C  0.21524725  0.33940528  0.88113221     0.27200
C1812       C  0.19905267  0.32867374  0.87787260    -0.13200
C1813       C  0.19638376  0.31177691  0.88757167     0.05300
C1814       C  0.21021965  0.30543643  0.90005121    -0.09200
C1815       C  0.22579185  0.31675685  0.90414434     0.06100
C1816       C  0.22822623  0.33382453  0.89479315    -0.13600
Br1817     Br  0.19616385  0.37576528  0.89612922    -0.05600
Br1818     Br  0.25534405  0.36778105  0.82435793     0.00000
Br1819     Br  0.17436593  0.29685070  0.88292684     0.00400
Br1820     Br  0.24972050  0.34928015  0.90007130    -0.04000
Br1821     Br  0.20705566  0.41343790  0.87125835     0.00500
Br1822     Br  0.23968529  0.32974812  0.84627040    -0.03300
Br1823     Br  0.18116050  0.33665487  0.85939208    -0.04100
Br1824     Br  0.24381707  0.30875806  0.92250628    -0.00200
C1825       C  0.37710793  0.36660712  0.79344819     0.01300
C1826       C  0.35873228  0.36213781  0.78769766     0.04100
C1827       C  0.34379861  0.37393859  0.79246907    -0.12000
C1828       C  0.34711819  0.39061827  0.80237885     0.23400
C1829       C  0.36539918  0.39532600  0.80788826    -0.12500
C1830       C  0.38034867  0.38323724  0.80370927     0.04800
C1831       C  0.33108587  0.40284229  0.80715380     0.27200
C1832       C  0.32369602  0.41500265  0.79356792    -0.13200
C1833       C  0.30641620  0.42382494  0.79668817     0.05300
C1834       C  0.29641267  0.42038171  0.81335270    -0.09200
C1835       C  0.30445280  0.40919765  0.82746516     0.06100
C1836       C  0.32185413  0.40058311  0.82440906    -0.13600
Br1837     Br  0.36978461  0.41823223  0.82143550    -0.05600
Br1838     Br  0.35378931  0.34033496  0.77251665     0.00000
Br1839     Br  0.29634865  0.44050205  0.77805574     0.00400
Br1840     Br  0.33261943  0.38474187  0.84337859    -0.04000
Br1841     Br  0.40493353  0.38907928  0.81325487     0.00500
Br1842     Br  0.31854722  0.36712220  0.78573013    -0.03300
Br1843     Br  0.33689110  0.41872592  0.77031586    -0.04100
Br1844     Br  0.29087907  0.40404221  0.85023176    -0.00200
C1845       C  0.28649027  0.28199808  0.55389741     0.01300
C1846       C  0.29420182  0.27225040  0.53839698     0.04100
C1847       C  0.28505707  0.27241442  0.52096758    -0.12000
C1848       C  0.26767715  0.28127673  0.51905086     0.23400
C1849       C  0.25914285  0.28959366  0.53465553    -0.12500
C1850       C  0.26848842  0.29023753  0.55195333     0.04800
C1851       C  0.25845211  0.28251923  0.50052004     0.27200
C1852       C  0.26097725  0.29863424  0.48946768    -0.13200
C1853       C  0.25047223  0.30104386  0.47303750     0.05300
C1854       C  0.23743159  0.28724614  0.46754183    -0.09200
C1855       C  0.23544469  0.27078951  0.47827975     0.06100
C1856       C  0.24603692  0.26839417  0.49467022    -0.13600
Br1857     Br  0.23467842  0.30071695  0.53192485    -0.05600
Br1858     Br  0.31683600  0.25773343  0.54073253     0.00000
Br1859     Br  0.25290174  0.32403792  0.45906120     0.00400
Br1860     Br  0.24333316  0.24597553  0.50942944    -0.04000
Br1861     Br  0.25634255  0.30346000  0.57217662     0.00500
Br1862     Br  0.29651497  0.26101544  0.49936896    -0.03300
Br1863     Br  0.27842665  0.31769809  0.49732738    -0.04100
Br1864     Br  0.21824715  0.25146171  0.47055705    -0.00200
C1865       C  0.40296873  0.32825148  0.72792425     0.01300
C1866       C  0.40665902  0.31267385  0.71651132     0.04100
C1867       C  0.39730016  0.31063015  0.69937269    -0.12000
C1868       C  0.38404323  0.32403169  0.69376495     0.23400
C1869       C  0.38123969  0.34022089  0.70459601    -0.12500
C1870       C  0.39072008  0.34235040  0.72168220     0.04800
C1871       C  0.37182116  0.32008487  0.67752216     0.27200
C1872       C  0.37714799  0.32562814  0.65943301    -0.13200
C1873       C  0.36602306  0.32069800  0.64396731     0.05300
C1874       C  0.34956708  0.30989690  0.64654862    -0.09200
C1875       C  0.34404479  0.30483397  0.66489105     0.06100
C1876       C  0.35510684  0.31003706  0.68027031    -0.13600
Br1877     Br  0.36380492  0.35900228  0.69632400    -0.05600
Br1878     Br  0.42435308  0.29404716  0.72457487     0.00000
Br1879     Br  0.37311122  0.32971640  0.61949173     0.00400
Br1880     Br  0.34755882  0.30320536  0.70530796    -0.04000
Br1881     Br  0.38589926  0.36392176  0.73712114     0.00500
Br1882     Br  0.40208045  0.28917327  0.68379223    -0.03300
Br1883     Br  0.39978267  0.33997602  0.65603242    -0.04100
Br1884     Br  0.32191195  0.28990694  0.66933368    -0.00200
C1885       C  0.17802830  0.23705802  0.87076651     0.01300
C1886       C  0.16402081  0.22320997  0.87266175     0.04100
C1887       C  0.15333707  0.21791976  0.85709037    -0.12000
C1888       C  0.15652258  0.22653814  0.83972342     0.23400
C1889       C  0.17069861  0.24009044  0.83770820    -0.12500
C1890       C  0.18142633  0.24540686  0.85322043     0.04800
C1891       C  0.14411988  0.22256952  0.82378684     0.27200
C1892       C  0.14805056  0.20763952  0.81160049    -0.13200
C1893       C  0.13812938  0.20598523  0.79476036     0.05300
C1894       C  0.12441478  0.21931565  0.79020608    -0.09200
C1895       C  0.11953464  0.23335093  0.80305160     0.06100
C1896       C  0.12935400  0.23494133  0.81990898    -0.13600
Br1897     Br  0.17504706  0.25166803  0.81367820    -0.05600
Br1898     Br  0.15957883  0.21107856  0.89639922     0.00000
Br1899     Br  0.14427850  0.18636737  0.77732303     0.00400
Br1900     Br  0.12339956  0.25469623  0.83727524    -0.04000
Br1901     Br  0.19987014  0.26501080  0.85053938     0.00500
Br1902     Br  0.13417439  0.19902958  0.85944785    -0.03300
Br1903     Br  0.16768139  0.19018724  0.81753165    -0.04100
Br1904     Br  0.09976648  0.25068627  0.79722219    -0.00200
C1905       C  0.15069086  0.18973710  0.71984811     0.01300
C1906       C  0.16886057  0.19245520  0.72706163     0.04100
C1907       C  0.18311030  0.17976374  0.72253162    -0.12000
C1908       C  0.17947662  0.16482689  0.71023635     0.23400
C1909       C  0.16168052  0.16260277  0.70230205    -0.12500
C1910       C  0.14720618  0.17486386  0.70726162     0.04800
C1911       C  0.19451925  0.15140871  0.70598168     0.27200
C1912       C  0.20665911  0.15477799  0.69085148    -0.13200
C1913       C  0.22290718  0.14399451  0.68883687     0.05300
C1914       C  0.22736244  0.13049626  0.70245925    -0.09200
C1915       C  0.21463881  0.12635680  0.71689972     0.06100
C1916       C  0.19791361  0.13646585  0.71832262    -0.13600
Br1917     Br  0.15724306  0.14261871  0.68474616    -0.05600
Br1918     Br  0.17432305  0.21293682  0.74380005     0.00000
Br1919     Br  0.23974150  0.14872065  0.66827407     0.00400
Br1920     Br  0.18000817  0.13053362  0.73762292    -0.04000
Br1921     Br  0.12278845  0.17136027  0.69624374     0.00500
Br1922     Br  0.20760639  0.18242063  0.73356989    -0.03300
Br1923     Br  0.20162462  0.17501615  0.67375588    -0.04100
Br1924     Br  0.22063704  0.10749393  0.73520544    -0.00200
C1925       C  0.29586969  0.15779432  0.67123077     0.01300
C1926       C  0.30806889  0.15535079  0.65581146     0.04100
C1927       C  0.31352194  0.17085008  0.64490018    -0.12000
C1928       C  0.30683589  0.18881895  0.64925675     0.23400
C1929       C  0.29459691  0.19128181  0.66449232    -0.12500
C1930       C  0.28912489  0.17588094  0.67545668     0.04800
C1931       C  0.31238043  0.20527736  0.63783257     0.27200
C1932       C  0.32605741  0.21781911  0.64453985    -0.13200
C1933       C  0.32921894  0.23487572  0.63522920     0.05300
C1934       C  0.31850920  0.23952524  0.61941324    -0.09200
C1935       C  0.30582739  0.22646587  0.61194942     0.06100
C1936       C  0.30278818  0.20931415  0.62111109    -0.13600
Br1937     Br  0.28517815  0.21592015  0.67021283    -0.05600
Br1938     Br  0.31824485  0.13104041  0.64997363     0.00000
Br1939     Br  0.34762599  0.25225280  0.64454004     0.00400
Br1940     Br  0.28475427  0.19179479  0.61135091    -0.04000
Br1941     Br  0.27164753  0.17976032  0.69571450     0.00500
Br1942     Br  0.33031944  0.16761586  0.62402166    -0.03300
Br1943     Br  0.33959903  0.21208455  0.66712008    -0.04100
Br1944     Br  0.29231505  0.23242945  0.58942058    -0.00200
C1945       C  0.79289994  0.28166005  0.96978883     0.01300
C1946       C  0.77830814  0.29466878  0.97311784     0.04100
C1947       C  0.76840252  0.29417300  0.99006279    -0.12000
C1948       C  0.77349930  0.28139819  0.00405717     0.23400
C1949       C  0.78792216  0.26849731  0.00092891    -0.12500
C1950       C  0.79736019  0.26829709  0.98371101     0.04800
C1951       C  0.76378547  0.28170292  0.02224236     0.27200
C1952       C  0.76969629  0.29418173  0.03622719    -0.13200
C1953       C  0.76000545  0.29505546  0.05329698     0.05300
C1954       C  0.74429788  0.28337283  0.05634799    -0.09200
C1955       C  0.73910825  0.27014627  0.04259455     0.06100
C1956       C  0.74866024  0.26956224  0.02546247    -0.13600
Br1957     Br  0.79481123  0.25127680  0.02053149    -0.05600
Br1958     Br  0.77238120  0.31430701  0.95547003     0.00000
Br1959     Br  0.76796455  0.31300741  0.07183162     0.00400
Br1960     Br  0.74082847  0.25248544  0.00608063    -0.04000
Br1961     Br  0.81581491  0.24908676  0.97937565     0.00500
Br1962     Br  0.74789566  0.31118319  0.99438235    -0.03300
Br1963     Br  0.79078549  0.31047239  0.03159275    -0.04100
Br1964     Br  0.71952610  0.25210046  0.04735794    -0.00200
C1965       C  0.06026659  0.25377139  0.74978692     0.01300
C1966       C  0.04616730  0.24630917  0.76162469     0.04100
C1967       C  0.02847455  0.25478423  0.76246203    -0.12000
C1968       C  0.02500233  0.27113591  0.75217872     0.23400
C1969       C  0.03938249  0.27951817  0.74168231    -0.12500
C1970       C  0.05696195  0.27089582  0.74035937     0.04800
C1971       C  0.00603657  0.27927222  0.75156172     0.27200
C1972       C  0.99374191  0.27394869  0.73719393    -0.13200
C1973       C  0.97694695  0.28370976  0.73454917     0.05300
C1974       C  0.97181424  0.29813686  0.74704643    -0.09200
C1975       C  0.98379036  0.30274129  0.76209917     0.06100
C1976       C  0.00101326  0.29351409  0.76411461    -0.13600
Br1977     Br  0.03450716  0.30253080  0.72839116    -0.05600
Br1978     Br  0.05095034  0.22482590  0.77732289     0.00000
Br1979     Br  0.96210369  0.27833786  0.71264112     0.00400
Br1980     Br  0.01807572  0.30051596  0.78379055    -0.04000
Br1981     Br  0.07566004  0.28239876  0.72453365     0.00500
Br1982     Br  0.00864567  0.24368091  0.77708243    -0.03300
Br1983     Br  0.00021961  0.25342792  0.72091063    -0.04100
Br1984     Br  0.97666781  0.32127934  0.78035646    -0.00200
C1985       C  0.90750718  0.32015283  0.79333095     0.01300
C1986       C  0.90994913  0.30269247  0.80217001     0.04100
C1987       C  0.90071728  0.29885096  0.81905131    -0.12000
C1988       C  0.88933519  0.31257081  0.82729397     0.23400
C1989       C  0.88786744  0.33043738  0.81917304    -0.12500
C1990       C  0.89699572  0.33428615  0.80219193     0.04800
C1991       C  0.87812832  0.30783335  0.84397492     0.27200
C1992       C  0.85959986  0.30166143  0.84179099    -0.13200
C1993       C  0.84891512  0.29673493  0.85752751     0.05300
C1994       C  0.85670505  0.29828893  0.87568038    -0.09200
C1995       C  0.87544959  0.30449814  0.87771685     0.06100
C1996       C  0.88608503  0.30915670  0.86184600    -0.13600
Br1997     Br  0.87241321  0.34918810  0.83085333    -0.05600
Br1998     Br  0.92603717  0.28401612  0.79119852     0.00000
Br1999     Br  0.82393899  0.28707160  0.85361995     0.00400
Br2000     Br  0.91161660  0.31761467  0.86438950    -0.04000
Br2001     Br  0.89378445  0.35842282  0.79053852     0.00500
Br2002     Br  0.90281668  0.27448060  0.83045941    -0.03300
Br2003     Br  0.84894183  0.29998289  0.81703193    -0.04100
Br2004     Br  0.88673530  0.30774744  0.90204131    -0.00200
C2005       C  0.81390182  0.23513901  0.90280875     0.01300
C2006       C  0.82380048  0.22942407  0.88680912     0.04100
C2007       C  0.81825617  0.21327793  0.87715176    -0.12000
C2008       C  0.80314624  0.20250467  0.88380300     0.23400
C2009       C  0.79375540  0.20774040  0.90031357    -0.12500
C2010       C  0.79909776  0.22414477  0.90978350     0.04800
C2011       C  0.79722982  0.18577681  0.87317636     0.27200
C2012       C  0.78383308  0.18747023  0.85888203    -0.13200
C2013       C  0.77970735  0.17208716  0.84733758     0.05300
C2014       C  0.78821989  0.15463454  0.85081924    -0.09200
C2015       C  0.80186448  0.15309548  0.86502764     0.06100
C2016       C  0.80635037  0.16864822  0.87612925    -0.13600
Br2017     Br  0.77326625  0.19275559  0.90950178    -0.05600
Br2018     Br  0.84463673  0.24405150  0.87782006     0.00000
Br2019     Br  0.76276973  0.17531510  0.82662405     0.00400
Br2020     Br  0.82537536  0.16673486  0.89514194    -0.04000
Br2021     Br  0.78623403  0.23167388  0.93225540     0.00500
Br2022     Br  0.83078481  0.20629610  0.85429724    -0.03300
Br2023     Br  0.77122221  0.21099830  0.85519789    -0.04100
Br2024     Br  0.81580919  0.13020162  0.86830415    -0.00200
C2025       C  0.74230593  0.25091688  0.56745576     0.01300
C2026       C  0.73478089  0.24330503  0.55075064     0.04100
C2027       C  0.74418213  0.24563065  0.53358647    -0.12000
C2028       C  0.76087875  0.25602501  0.53265501     0.23400
C2029       C  0.76870487  0.26325034  0.54923330    -0.12500
C2030       C  0.75975008  0.26030134  0.56662389     0.04800
C2031       C  0.77046683  0.25853338  0.51424399     0.27200
C2032       C  0.78538009  0.24674047  0.50924947    -0.13200
C2033       C  0.79368717  0.24822098  0.49143689     0.05300
C2034       C  0.78659565  0.26093026  0.47802989    -0.09200
C2035       C  0.77160562  0.27270117  0.48304169     0.06100
C2036       C  0.76385035  0.27177564  0.50121229    -0.13600
Br2037     Br  0.79179939  0.27718829  0.54800259    -0.05600
Br2038     Br  0.71224735  0.22829119  0.55115976     0.00000
Br2039     Br  0.81433857  0.23202676  0.48534575     0.00400
Br2040     Br  0.74403752  0.28854333  0.50839987    -0.04000
Br2041     Br  0.77174424  0.26909326  0.58906598     0.00500
Br2042     Br  0.73461939  0.23387275  0.51124244    -0.03300
Br2043     Br  0.79383784  0.22788506  0.52660910    -0.04100
Br2044     Br  0.76191548  0.29032733  0.46520417    -0.00200
C2045       C  0.87279831  0.35418285  0.73081354     0.01300
C2046       C  0.85715027  0.34888027  0.74166034     0.04100
C2047       C  0.84003473  0.35829997  0.73951475    -0.12000
C2048       C  0.83852762  0.37317215  0.72668122     0.23400
C2049       C  0.85410993  0.37839324  0.71577301    -0.12500
C2050       C  0.87123061  0.36897850  0.71787311     0.04800
C2051       C  0.82062522  0.38347902  0.72474225     0.27200
C2052       C  0.80822824  0.37901649  0.71013748    -0.13200
C2053       C  0.79176671  0.38945899  0.70766418     0.05300
C2054       C  0.78698741  0.40360951  0.72056805    -0.09200
C2055       C  0.79902864  0.40749812  0.73567763     0.06100
C2056       C  0.81609082  0.39787026  0.73739653    -0.13600
Br2057     Br  0.85186972  0.39841530  0.69784364    -0.05600
Br2058     Br  0.85935029  0.32937623  0.76021658     0.00000
Br2059     Br  0.77542955  0.38369702  0.68700312     0.00400
Br2060     Br  0.83334583  0.40432242  0.75707016    -0.04000
Br2061     Br  0.89234880  0.37600623  0.70255934     0.00500
Br2062     Br  0.81855052  0.35081624  0.75406415    -0.03300
Br2063     Br  0.81350581  0.35802791  0.69405099    -0.04100
Br2064     Br  0.79220669  0.42605187  0.75400292    -0.00200
C2065       C  0.71047916  0.29286922  0.63649337     0.01300
C2066       C  0.69631815  0.29747333  0.64945301     0.04100
C2067       C  0.69747580  0.31423812  0.65972463    -0.12000
C2068       C  0.71261512  0.32654876  0.65688608     0.23400
C2069       C  0.72611836  0.32250647  0.64315335    -0.12500
C2070       C  0.72495138  0.30578108  0.63289588     0.04800
C2071       C  0.71461154  0.34355647  0.66859155     0.27200
C2072       C  0.70573392  0.36028148  0.66333021    -0.13200
C2073       C  0.70829918  0.37657322  0.67403198     0.05300
C2074       C  0.72006166  0.37629896  0.68986825    -0.09200
C2075       C  0.72815907  0.35926957  0.69567859     0.06100
C2076       C  0.72560997  0.34300572  0.68490177    -0.13600
Br2077     Br  0.74646710  0.33973988  0.63878188    -0.05600
Br2078     Br  0.67563181  0.28064230  0.65364198     0.00000
Br2079     Br  0.69480659  0.39899651  0.66754654     0.00400
Br2080     Br  0.73774348  0.32002176  0.69202600    -0.04000
Br2081     Br  0.74266482  0.30096184  0.61326936     0.00500
Br2082     Br  0.67873297  0.32016936  0.67818847    -0.03300
Br2083     Br  0.69044924  0.36089835  0.64115047    -0.04100
Br2084     Br  0.74328816  0.35812574  0.71798794    -0.00200
C2085       C  0.54803978  0.23920891  0.77979722     0.01300
C2086       C  0.54500209  0.25439441  0.79214570     0.04100
C2087       C  0.52908036  0.26575087  0.79015030    -0.12000
C2088       C  0.51551656  0.26147486  0.77656974     0.23400
C2089       C  0.51806933  0.24601062  0.76471016    -0.12500
C2090       C  0.53434804  0.23504656  0.76609350     0.04800
C2091       C  0.49798365  0.27255210  0.77567356     0.27200
C2092       C  0.48351972  0.26887876  0.78850982    -0.13200
C2093       C  0.46752907  0.28028088  0.78891624     0.05300
C2094       C  0.46538588  0.29488605  0.77568378    -0.09200
C2095       C  0.47955797  0.29787090  0.76216595     0.06100
C2096       C  0.49596551  0.28700545  0.76246501    -0.13600
Br2097     Br  0.49884258  0.23962423  0.74690495    -0.05600
Br2098     Br  0.56133949  0.25868249  0.81321504     0.00000
Br2099     Br  0.44961297  0.27658318  0.80884257     0.00400
Br2100     Br  0.51595011  0.29209299  0.74503840    -0.04000
Br2101     Br  0.53758321  0.21448317  0.74890653     0.00500
Br2102     Br  0.52548188  0.28705158  0.80634596    -0.03300
Br2103     Br  0.48589294  0.24823094  0.80576882    -0.04100
Br2104     Br  0.47643225  0.31633599  0.74271680    -0.00200
C2105       C  0.61369024  0.20704635  0.73348266     0.01300
C2106       C  0.62530453  0.19192208  0.72847385     0.04100
C2107       C  0.63824734  0.19390772  0.71374507    -0.12000
C2108       C  0.63850608  0.21039277  0.70291562     0.23400
C2109       C  0.62529580  0.22456378  0.70653806    -0.12500
C2110       C  0.61334388  0.22316154  0.72214353     0.04800
C2111       C  0.65336093  0.21348090  0.68860020     0.27200
C2112       C  0.66825647  0.22589246  0.69239703    -0.13200
C2113       C  0.68149484  0.23020835  0.67840562     0.05300
C2114       C  0.68010938  0.22181755  0.66060165    -0.09200
C2115       C  0.66623329  0.20807834  0.65748643     0.06100
C2116       C  0.65260585  0.20429969  0.67120610    -0.13600
Br2117     Br  0.62417584  0.24624604  0.69051497    -0.05600
Br2118     Br  0.62442240  0.16885622  0.74248733     0.00000
Br2119     Br  0.70100892  0.24811256  0.68361699     0.00400
Br2120     Br  0.63259603  0.18693665  0.66593379    -0.04000
Br2121     Br  0.59667027  0.24342468  0.72823371     0.00500
Br2122     Br  0.65668059  0.17472215  0.70948870    -0.03300
Br2123     Br  0.67029571  0.23717956  0.71681906    -0.04100
Br2124     Br  0.66663207  0.19343694  0.63488396    -0.00200
C2125       C  0.72062707  0.11964270  0.82131588     0.01300
C2126       C  0.71556231  0.13584190  0.83122451     0.04100
C2127       C  0.69897135  0.14528082  0.82671195    -0.12000
C2128       C  0.68699331  0.13801737  0.81287960     0.23400
C2129       C  0.69109869  0.12072176  0.80441467    -0.12500
C2130       C  0.70792476  0.11152762  0.80869590     0.04800
C2131       C  0.67034615  0.14885527  0.80709748     0.27200
C2132       C  0.65296988  0.14556017  0.81572091    -0.13200
C2133       C  0.63749141  0.15676598  0.81120392     0.05300
C2134       C  0.63946140  0.17159633  0.79825949    -0.09200
C2135       C  0.65682700  0.17460417  0.78932923     0.06100
C2136       C  0.67218089  0.16314574  0.79365278    -0.13600
Br2137     Br  0.67409346  0.11013889  0.78639492    -0.05600
Br2138     Br  0.73147584  0.14512760  0.85084476     0.00000
Br2139     Br  0.61389597  0.15218476  0.82355665     0.00400
Br2140     Br  0.69587498  0.16702614  0.78128862    -0.04000
Br2141     Br  0.71345001  0.08758566  0.79782977     0.00500
Br2142     Br  0.69314206  0.16873602  0.83864465    -0.03300
Br2143     Br  0.65063152  0.12593147  0.83410197    -0.04100
Br2144     Br  0.65956745  0.19397550  0.77069093    -0.00200
C2145       C  0.24884613  0.98067397  0.25214598     0.01300
C2146       C  0.26060854  0.99533460  0.24566877     0.04100
C2147       C  0.26075326  0.01265518  0.25490814    -0.12000
C2148       C  0.25028366  0.01501017  0.27133340     0.23400
C2149       C  0.24047522  0.99985220  0.27913207    -0.12500
C2150       C  0.23923303  0.98286541  0.26936516     0.04800
C2151       C  0.24758664  0.03384401  0.27927911     0.27200
C2152       C  0.26049722  0.04132508  0.29206662    -0.13200
C2153       C  0.25690044  0.05864598  0.30061679     0.05300
C2154       C  0.24007220  0.06817462  0.29677138    -0.09200
C2155       C  0.22719964  0.06060236  0.28383824     0.06100
C2156       C  0.23121806  0.04371770  0.27478608    -0.13600
Br2157     Br  0.22790484  0.00294939  0.30286163    -0.05600
Br2158     Br  0.27701347  0.99197377  0.22442543     0.00000
Br2159     Br  0.27529885  0.06942637  0.31713344     0.00400
Br2160     Br  0.21407421  0.03377724  0.25642055    -0.04000
Br2161     Br  0.22286148  0.96373471  0.27924188     0.00500
Br2162     Br  0.27445448  0.03355992  0.24460450    -0.03300
Br2163     Br  0.28284361  0.02756732  0.29805309    -0.04100
Br2164     Br  0.20320310  0.07224555  0.27954857    -0.00200
C2165       C  0.45846564  0.78516920  0.25187513     0.01300
C2166       C  0.46487355  0.77404417  0.23683198     0.04100
C2167       C  0.48277288  0.76588093  0.23750213    -0.12000
C2168       C  0.49425746  0.76836287  0.25330535     0.23400
C2169       C  0.48734717  0.77823398  0.26887933    -0.12500
C2170       C  0.46955350  0.78665805  0.26815979     0.04800
C2171       C  0.51398542  0.76164498  0.25283279     0.27200
C2172       C  0.51900791  0.74460398  0.26123812    -0.13200
C2173       C  0.53738473  0.73771313  0.25941581     0.05300
C2174       C  0.55055519  0.74701651  0.24776762    -0.09200
C2175       C  0.54563741  0.76473209  0.24018563     0.06100
C2176       C  0.52759532  0.77209218  0.24313893    -0.13600
Br2177     Br  0.50258465  0.78072417  0.29095807    -0.05600
Br2178     Br  0.44988201  0.77081464  0.21462318     0.00000
Br2179     Br  0.54452608  0.71624727  0.27416485     0.00400
Br2180     Br  0.52113447  0.79649510  0.23350980    -0.04000
Br2181     Br  0.46028405  0.79996468  0.28971426     0.00500
Br2182     Br  0.49207753  0.75195188  0.21634002    -0.03300
Br2183     Br  0.50042173  0.73041267  0.27477204    -0.04100
Br2184     Br  0.56277373  0.77912051  0.22494272    -0.00200
C2185       C  0.36939293  0.85514966  0.22907482     0.01300
C2186       C  0.35033199  0.84990789  0.23066591     0.04100
C2187       C  0.33614619  0.86289596  0.22651205    -0.12000
C2188       C  0.34075318  0.88135371  0.22140953     0.23400
C2189       C  0.35957928  0.88650553  0.21915801    -0.12500
C2190       C  0.37384950  0.87337195  0.22248038     0.04800
C2191       C  0.32567135  0.89549734  0.21964686     0.27200
C2192       C  0.31631017  0.89805106  0.20253200    -0.13200
C2193       C  0.29998687  0.90901494  0.20179176     0.05300
C2194       C  0.29311252  0.91760334  0.21820680    -0.09200
C2195       C  0.30340737  0.91623761  0.23495610     0.06100
C2196       C  0.31961185  0.90518227  0.23566770    -0.13600
Br2197     Br  0.36566803  0.91178575  0.21184273    -0.05600
Br2198     Br  0.34315103  0.82542637  0.23956740     0.00000
Br2199     Br  0.28617636  0.91057149  0.17867072     0.00400
Br2200     Br  0.33311238  0.90250520  0.25883470    -0.04000
Br2201     Br  0.39933077  0.88040019  0.21677459     0.00500
Br2202     Br  0.31015529  0.85565368  0.22815770    -0.03300
Br2203     Br  0.32537325  0.88566212  0.18038258    -0.04100
Br2204     Br  0.29514795  0.92930735  0.25707351    -0.00200
C2205       C  0.39111321  0.80953633  0.29479319     0.01300
C2206       C  0.37797548  0.82195586  0.30251876     0.04100
C2207       C  0.36910418  0.81744935  0.31945625    -0.12000
C2208       C  0.37413649  0.80106503  0.32913395     0.23400
C2209       C  0.38763741  0.78890656  0.32165440    -0.12500
C2210       C  0.39576054  0.79289223  0.30422778     0.04800
C2211       C  0.36478509  0.79646588  0.34695205     0.27200
C2212       C  0.37137658  0.80425295  0.36374985    -0.13200
C2213       C  0.36146012  0.80131377  0.38046612     0.05300
C2214       C  0.34498130  0.79039899  0.38035755    -0.09200
C2215       C  0.33898225  0.78180386  0.36361146     0.06100
C2216       C  0.34882625  0.78495837  0.34692531    -0.13600
Br2217     Br  0.39472683  0.76671988  0.33521813    -0.05600
Br2218     Br  0.37148052  0.84465011  0.28946675     0.00000
Br2219     Br  0.37003093  0.81318523  0.40313003     0.00400
Br2220     Br  0.34037419  0.77374951  0.32388099    -0.04000
Br2221     Br  0.41309783  0.77546699  0.29317538     0.00500
Br2222     Br  0.34940369  0.83316215  0.32903415    -0.03300
Br2223     Br  0.39388816  0.81917198  0.36363743    -0.04100
Br2224     Br  0.31771737  0.76506680  0.36343740    -0.00200
C2225       C  0.21160334  0.81190756  0.12678898     0.01300
C2226       C  0.22874386  0.82130203  0.12426720     0.04100
C2227       C  0.23263091  0.83746001  0.13469288    -0.12000
C2228       C  0.21956743  0.84383382  0.14793352     0.23400
C2229       C  0.20233564  0.83461192  0.15026413    -0.12500
C2230       C  0.19818877  0.81884667  0.13942908     0.04800
C2231       C  0.22383288  0.86019593  0.15960953     0.27200
C2232       C  0.23408580  0.85792426  0.17619754    -0.13200
C2233       C  0.23712161  0.87330004  0.18797703     0.05300
C2234       C  0.22911358  0.89079586  0.18354357    -0.09200
C2235       C  0.21869822  0.89290840  0.16691198     0.06100
C2236       C  0.21650382  0.87772335  0.15474462    -0.13600
Br2237     Br  0.18469969  0.84332685  0.16876298    -0.05600
Br2238     Br  0.24659941  0.81234753  0.10618606     0.00000
Br2239     Br  0.25299261  0.87032118  0.20961464     0.00400
Br2240     Br  0.20317442  0.88070060  0.13147605    -0.04000
Br2241     Br  0.17437130  0.80645604  0.14248728     0.00500
Br2242     Br  0.25576183  0.85089557  0.13098813    -0.03300
Br2243     Br  0.24359808  0.83358287  0.18287375    -0.04100
Br2244     Br  0.20613983  0.91603022  0.16120349    -0.00200
C2245       C  0.27137999  0.57407298  0.26767451     0.01300
C2246       C  0.28461435  0.57029068  0.25345316     0.04100
C2247       C  0.28331637  0.55362494  0.24315770    -0.12000
C2248       C  0.26976448  0.54014362  0.24797409     0.23400
C2249       C  0.25646914  0.54396175  0.26194353    -0.12500
C2250       C  0.25670893  0.56125561  0.27111427     0.04800
C2251       C  0.27002641  0.52156751  0.23903788     0.27200
C2252       C  0.25607918  0.51665873  0.22609045    -0.13200
C2253       C  0.25569217  0.49858813  0.21850154     0.05300
C2254       C  0.27019580  0.48588092  0.22263276    -0.09200
C2255       C  0.28455681  0.49110728  0.23519032     0.06100
C2256       C  0.28399064  0.50863834  0.24393496    -0.13600
Br2257     Br  0.23866749  0.52499633  0.26939435    -0.05600
Br2258     Br  0.30571042  0.58666566  0.24906826     0.00000
Br2259     Br  0.23468326  0.49115646  0.20325448     0.00400
Br2260     Br  0.30237593  0.51499124  0.26269444    -0.04000
Br2261     Br  0.23657550  0.56734856  0.28807807     0.00500
Br2262     Br  0.30063280  0.54876748  0.22298128    -0.03300
Br2263     Br  0.23767225  0.53485564  0.21855968    -0.04100
Br2264     Br  0.30597433  0.47521971  0.23950746    -0.00200
C2265       C  0.31019418  0.72906725  0.40845549     0.01300
C2266       C  0.32545983  0.72348611  0.39723858     0.04100
C2267       C  0.32342707  0.70835658  0.38493244    -0.12000
C2268       C  0.30633569  0.69866452  0.38414572     0.23400
C2269       C  0.29165501  0.70326100  0.39640808    -0.12500
C2270       C  0.29358286  0.71849701  0.40857226     0.04800
C2271       C  0.30320276  0.68451649  0.36955252     0.27200
C2272       C  0.29496627  0.68988685  0.35254929    -0.13200
C2273       C  0.29008414  0.67627347  0.33931923     0.05300
C2274       C  0.29424011  0.65728036  0.34276990    -0.09200
C2275       C  0.30332148  0.65208256  0.35956758     0.06100
C2276       C  0.30760586  0.66572216  0.37299103    -0.13600
Br2277     Br  0.26854254  0.68932215  0.39566028    -0.05600
Br2278     Br  0.34860014  0.73746366  0.39727169     0.00000
Br2279     Br  0.27643337  0.68378412  0.31727515     0.00400
Br2280     Br  0.31954458  0.65885055  0.39617518    -0.04000
Br2281     Br  0.27340872  0.72514762  0.42519766     0.00500
Br2282     Br  0.34346624  0.70169862  0.36812326    -0.03300
Br2283     Br  0.29039717  0.71601065  0.34750081    -0.04100
Br2284     Br  0.31062917  0.62649663  0.36425752    -0.00200
C2285       C  0.04707111  0.74881222  0.27480921     0.01300
C2286       C  0.04239098  0.76322242  0.28752466     0.04100
C2287       C  0.02603112  0.77372528  0.28489311    -0.12000
C2288       C  0.01330076  0.76880144  0.27073030     0.23400
C2289       C  0.01765533  0.75425781  0.25824179    -0.12500
C2290       C  0.03478340  0.74474426  0.25981563     0.04800
C2291       C  0.99479718  0.77810348  0.27004101     0.27200
C2292       C  0.98130485  0.77368425  0.28369153    -0.13200
C2293       C  0.96468637  0.78403433  0.28484593     0.05300
C2294       C  0.96085086  0.79815434  0.27150336    -0.09200
C2295       C  0.97401574  0.80183117  0.25715744     0.06100
C2296       C  0.99110750  0.79210004  0.25670693    -0.13600
Br2297     Br  0.99985819  0.74706418  0.23928780    -0.05600
Br2298     Br  0.05707216  0.76760917  0.30975845     0.00000
Br2299     Br  0.94844528  0.77992273  0.30610339     0.00400
Br2300     Br  0.00982021  0.79835416  0.23825036    -0.04000
Br2301     Br  0.04138870  0.72670219  0.24083391     0.00500
Br2302     Br  0.02078397  0.79482832  0.30090215    -0.03300
Br2303     Br  0.98598599  0.75370066  0.30127728    -0.04100
Br2304     Br  0.96876226  0.81993893  0.23783726    -0.00200
C2305       C  0.11318272  0.72997762  0.22911637     0.01300
C2306       C  0.11154398  0.74823733  0.22179472     0.04100
C2307       C  0.12078075  0.75303730  0.20512092    -0.12000
C2308       C  0.13167758  0.73962984  0.19576340     0.23400
C2309       C  0.13264894  0.72118613  0.20256636    -0.12500
C2310       C  0.12340806  0.71632377  0.21922808     0.04800
C2311       C  0.14288565  0.74509264  0.17925113     0.27200
C2312       C  0.13488949  0.74469476  0.16135494    -0.13200
C2313       C  0.14583291  0.74897118  0.14556441     0.05300
C2314       C  0.16514206  0.75311994  0.14761930    -0.09200
C2315       C  0.17266096  0.75489207  0.16587268     0.06100
C2316       C  0.16158543  0.75066814  0.18156940    -0.13600
Br2317     Br  0.14733422  0.70284033  0.18934688    -0.05600
Br2318     Br  0.09655783  0.76671266  0.23451776     0.00000
Br2319     Br  0.13372391  0.74914557  0.12149719     0.00400
Br2320     Br  0.17191372  0.75249148  0.20644667    -0.04000
Br2321     Br  0.12613237  0.69135586  0.22913497     0.00500
Br2322     Br  0.11902737  0.77810272  0.19528574    -0.03300
Br2323     Br  0.10885882  0.73800618  0.15864199    -0.04100
Br2324     Br  0.19754739  0.76471997  0.16989975    -0.00200
C2325       C  0.22834527  0.63789366  0.30009724     0.01300
C2326       C  0.22180364  0.64967671  0.31444250     0.04100
C2327       C  0.20470757  0.65905001  0.31233824    -0.12000
C2328       C  0.19394369  0.65626747  0.29611206     0.23400
C2329       C  0.20012973  0.64389786  0.28211539    -0.12500
C2330       C  0.21748505  0.63493964  0.28396721     0.04800
C2331       C  0.17641653  0.66685130  0.29349898     0.27200
C2332       C  0.15948352  0.65978132  0.30061800    -0.13200
C2333       C  0.14286591  0.66997016  0.29831427     0.05300
C2334       C  0.14322601  0.68742852  0.28904546    -0.09200
C2335       C  0.16023880  0.69435399  0.28170999     0.06100
C2336       C  0.17678559  0.68405943  0.28395716    -0.13600
Br2337     Br  0.18481989  0.63942182  0.26040249    -0.05600
Br2338     Br  0.23667798  0.65368624  0.33656876     0.00000
Br2339     Br  0.11984715  0.66013730  0.30851029     0.00400
Br2340     Br  0.20007509  0.69342284  0.27393870    -0.04000
Br2341     Br  0.22641311  0.61859479  0.26447395     0.00500
Br2342     Br  0.19621093  0.67614101  0.33137658    -0.03300
Br2343     Br  0.15925172  0.63616904  0.31368822    -0.04100
Br2344     Br  0.16089176  0.71742515  0.26764372    -0.00200
C2345       C  0.27139703  0.98025119  0.78631690     0.01300
C2346       C  0.28631762  0.98703453  0.77527735     0.04100
C2347       C  0.28451247  0.00410647  0.76568873    -0.12000
C2348       C  0.26797814  0.01467752  0.76739950     0.23400
C2349       C  0.25298158  0.00777643  0.77818799    -0.12500
C2350       C  0.25455303  0.99042187  0.78731171     0.04800
C2351       C  0.26683854  0.03331078  0.75829971     0.27200
C2352       C  0.27675491  0.04849259  0.76593010    -0.13200
C2353       C  0.27870204  0.06521877  0.75572439     0.05300
C2354       C  0.26947947  0.06735068  0.73828853    -0.09200
C2355       C  0.25765258  0.05277130  0.73188347     0.06100
C2356       C  0.25698456  0.03557516  0.74145519    -0.13600
Br2357     Br  0.23059814  0.02246504  0.78110009    -0.05600
Br2358     Br  0.30976428  0.97373656  0.77420038     0.00000
Br2359     Br  0.29537848  0.08416465  0.76543009     0.00400
Br2360     Br  0.24316095  0.01480065  0.73112677    -0.04000
Br2361     Br  0.23337421  0.98027153  0.80069198     0.00500
Br2362     Br  0.30498126  0.01341509  0.75064705    -0.03300
Br2363     Br  0.28816051  0.04596548  0.79027634    -0.04100
Br2364     Br  0.24153486  0.05633114  0.71053414    -0.00200
C2365       C  0.14513759  0.85871493  0.79770147     0.01300
C2366       C  0.16287015  0.85193828  0.79214861     0.04100
C2367       C  0.17914255  0.86218576  0.79642391    -0.12000
C2368       C  0.17775089  0.87970702  0.80527488     0.23400
C2369       C  0.16015795  0.88650443  0.81080014    -0.12500
C2370       C  0.14394905  0.87586943  0.80746241     0.04800
C2371       C  0.19468990  0.89133240  0.80829148     0.27200
C2372       C  0.20319423  0.89201459  0.82602365    -0.13200
C2373       C  0.21891913  0.90350727  0.82897354     0.05300
C2374       C  0.22668989  0.91371914  0.81391903    -0.09200
C2375       C  0.21781076  0.91342739  0.79633795     0.06100
C2376       C  0.20186507  0.90225693  0.79353103    -0.13600
Br2377     Br  0.15836080  0.91055268  0.82290486    -0.05600
Br2378     Br  0.16507550  0.82929929  0.77759091     0.00000
Br2379     Br  0.23004952  0.90458527  0.85352649     0.00400
Br2380     Br  0.19000365  0.90158395  0.76933473    -0.04000
Br2381     Br  0.12036869  0.88454213  0.81733880     0.00500
Br2382     Br  0.20345394  0.85223787  0.79032447    -0.03300
Br2383     Br  0.19371346  0.87649271  0.84599729    -0.04100
Br2384     Br  0.22709039  0.92895890  0.77626933    -0.00200
C2385       C  0.23498546  0.77151836  0.05719850     0.01300
C2386       C  0.22712134  0.77525905  0.03926580     0.04100
C2387       C  0.23862251  0.77562251  0.02332978    -0.12000
C2388       C  0.25760165  0.77099618  0.02474938     0.23400
C2389       C  0.26577228  0.76840856  0.04238260    -0.12500
C2390       C  0.25472291  0.76954012  0.05863685     0.04800
C2391       C  0.26833729  0.76717002  0.00748130     0.27200
C2392       C  0.26564355  0.75000468  0.99822019    -0.13200
C2393       C  0.27428522  0.74674511  0.98090962     0.05300
C2394       C  0.28608860  0.76047223  0.97300522    -0.09200
C2395       C  0.28930245  0.77742719  0.98262455     0.06100
C2396       C  0.28014032  0.78089214  0.99969139    -0.13600
Br2397     Br  0.29203982  0.76248707  0.04407802    -0.05600
Br2398     Br  0.20060524  0.77884725  0.03524473     0.00000
Br2399     Br  0.27013725  0.72322808  0.96829990     0.00400
Br2400     Br  0.28295346  0.80471557  0.01202520    -0.04000
Br2401     Br  0.26736535  0.76918721  0.08251388     0.00500
Br2402     Br  0.22836852  0.78169503  0.99906968    -0.03300
Br2403     Br  0.24969165  0.73109069  0.00917863    -0.04100
Br2404     Br  0.30541090  0.79638898  0.97207170    -0.00200
C2405       C  0.30410618  0.80552462  0.90504602     0.01300
C2406       C  0.31612946  0.81170135  0.89065515     0.04100
C2407       C  0.31268165  0.82879288  0.88162838    -0.12000
C2408       C  0.29736000  0.83984092  0.88708288     0.23400
C2409       C  0.28580295  0.83407889  0.90196812    -0.12500
C2410       C  0.28917978  0.81691830  0.91095476     0.04800
C2411       C  0.29315742  0.85716449  0.87659383     0.27200
C2412       C  0.30222390  0.87400218  0.88127832    -0.13200
C2413       C  0.29959396  0.89002760  0.87019335     0.05300
C2414       C  0.28800225  0.88914509  0.85427042    -0.09200
C2415       C  0.27843263  0.87240604  0.84998227     0.06100
C2416       C  0.28100969  0.85645859  0.86114919    -0.13600
Br2417     Br  0.26503799  0.84946093  0.90954675    -0.05600
Br2418     Br  0.33663718  0.79627545  0.88238685     0.00000
Br2419     Br  0.31265468  0.91284311  0.87636586     0.00400
Br2420     Br  0.26815606  0.83347191  0.85516327    -0.04000
Br2421     Br  0.27351822  0.80906948  0.93148859     0.00500
Br2422     Br  0.32840219  0.83678027  0.86114640    -0.03300
Br2423     Br  0.31863529  0.87481243  0.90262977    -0.04100
Br2424     Br  0.26127039  0.87135581  0.82918459    -0.00200
C2425       C  0.38444138  0.72946923  0.78603742     0.01300
C2426       C  0.38624083  0.74579802  0.79686743     0.04100
C2427       C  0.37547245  0.74791972  0.81316558    -0.12000
C2428       C  0.36245011  0.73401101  0.81825942     0.23400
C2429       C  0.36033942  0.71788257  0.80720765    -0.12500
C2430       C  0.37160662  0.71542274  0.79131859     0.04800
C2431       C  0.35190202  0.73580014  0.83592957     0.27200
C2432       C  0.35877028  0.72712395  0.85215533    -0.13200
C2433       C  0.34947029  0.72949942  0.86925903     0.05300
C2434       C  0.33332937  0.74080542  0.87023154    -0.09200
C2435       C  0.32615181  0.74908357  0.85379727     0.06100
C2436       C  0.33544645  0.74651495  0.83665761    -0.13600
Br2437     Br  0.34194623  0.69924683  0.81390681    -0.05600
Br2438     Br  0.40388807  0.76493444  0.78969571     0.00000
Br2439     Br  0.35867880  0.71661430  0.89113108     0.00400
Br2440     Br  0.32595210  0.75793746  0.81415817    -0.04000
Br2441     Br  0.36922672  0.69287862  0.77672183     0.00500
Br2442     Br  0.37875997  0.76964008  0.82881492    -0.03300
Br2443     Br  0.38121188  0.71222207  0.85089323    -0.04100
Br2444     Br  0.30429173  0.76487236  0.85469959    -0.00200
C2445       C  0.24538121  0.57276404  0.74455118     0.01300
C2446       C  0.25964334  0.56004520  0.73950958     0.04100
C2447       C  0.26116793  0.54280413  0.74878448    -0.12000
C2448       C  0.24936713  0.53871498  0.76397473     0.23400
C2449       C  0.23677464  0.55228508  0.77057193    -0.12500
C2450       C  0.23457751  0.56923181  0.76081989     0.04800
C2451       C  0.24929665  0.51975139  0.77229184     0.27200
C2452       C  0.23525738  0.50693967  0.76711383    -0.13200
C2453       C  0.23421810  0.48934614  0.77582485     0.05300
C2454       C  0.24784102  0.48414060  0.78913474    -0.09200
C2455       C  0.26253737  0.49665334  0.79346158     0.06100
C2456       C  0.26294604  0.51460259  0.78543946    -0.13600
Br2457     Br  0.22196480  0.54711630  0.79259425    -0.05600
Br2458     Br  0.27785830  0.56646023  0.72057227     0.00000
Br2459     Br  0.21323083  0.47320620  0.77036612     0.00400
Br2460     Br  0.28191361  0.53236865  0.79273512    -0.04000
Br2461     Br  0.21601854  0.58674658  0.76961921     0.00500
Br2462     Br  0.27876517  0.52432951  0.74010063    -0.03300
Br2463     Br  0.21727941  0.51373887  0.74817336    -0.04100
Br2464     Br  0.28266067  0.48904145  0.80971655    -0.00200
C2465       C  0.28548127  0.63537566  0.71233988     0.01300
C2466       C  0.29349021  0.64524399  0.69727400     0.04100
C2467       C  0.31116863  0.65344377  0.69933170    -0.12000
C2468       C  0.32095670  0.65132069  0.71623214     0.23400
C2469       C  0.31356383  0.64033339  0.73078313    -0.12500
C2470       C  0.29562551  0.63262008  0.72898224     0.04800
C2471       C  0.33749728  0.66299657  0.71968914     0.27200
C2472       C  0.35553947  0.65606072  0.71638529    -0.13200
C2473       C  0.37112188  0.66771267  0.71912865     0.05300
C2474       C  0.36849577  0.68648694  0.72480877    -0.09200
C2475       C  0.35022968  0.69327790  0.72822425     0.06100
C2476       C  0.33484004  0.68143224  0.72586423    -0.13600
Br2477     Br  0.32779277  0.63656918  0.75336671    -0.05600
Br2478     Br  0.27972965  0.64879977  0.67436501     0.00000
Br2479     Br  0.39579478  0.65784490  0.71437036     0.00400
Br2480     Br  0.30990201  0.69035090  0.73125749    -0.04000
Br2481     Br  0.28490503  0.61851088  0.74938095     0.00500
Br2482     Br  0.32154622  0.66869207  0.67957623    -0.03300
Br2483     Br  0.35869059  0.63062986  0.70797971    -0.04100
Br2484     Br  0.34578784  0.71847055  0.73709126    -0.00200
C2485       C  0.23264697  0.78085902  0.56065028     0.01300
C2486       C  0.25062379  0.78898854  0.55856068     0.04100
C2487       C  0.26093701  0.78589609  0.54209615    -0.12000
C2488       C  0.25328217  0.77507183  0.52758705     0.23400
C2489       C  0.23607590  0.76592639  0.53009603    -0.12500
C2490       C  0.22599043  0.76838152  0.54676163     0.04800
C2491       C  0.26246930  0.77483479  0.50907389     0.27200
C2492       C  0.25932335  0.78974566  0.49663438    -0.13200
C2493       C  0.26867551  0.79032421  0.47938575     0.05300
C2494       C  0.28091848  0.77568506  0.47435241    -0.09200
C2495       C  0.28322466  0.76024556  0.48641664     0.06100
C2496       C  0.27428222  0.76000281  0.50392549    -0.13600
Br2497     Br  0.22599606  0.75069224  0.51022688    -0.05600
Br2498     Br  0.26109181  0.80526363  0.57739728     0.00000
Br2499     Br  0.26538351  0.81184778  0.46338194     0.00400
Br2500     Br  0.27845287  0.73961993  0.52105899    -0.04000
Br2501     Br  0.20351135  0.75378686  0.55057330     0.00500
Br2502     Br  0.28531408  0.79712478  0.53885156    -0.03300
Br2503     Br  0.24238088  0.80959250  0.50352629    -0.04100
Br2504     Br  0.29787468  0.73900305  0.47860448    -0.00200
C2505       C  0.21761766  0.65841251  0.67275027     0.01300
C2506       C  0.20576845  0.65479420  0.65736077     0.04100
C2507       C  0.20011871  0.66953439  0.64561351    -0.12000
C2508       C  0.20622467  0.68789143  0.64920143     0.23400
C2509       C  0.21791252  0.69155647  0.66460726    -0.12500
C2510       C  0.22379879  0.67685079  0.67621501     0.04800
C2511       C  0.20124425  0.70339514  0.63639792     0.27200
C2512       C  0.21417159  0.70915881  0.62267827    -0.13200
C2513       C  0.21142087  0.72607080  0.61310756     0.05300
C2514       C  0.19568808  0.73714252  0.61712838    -0.09200
C2515       C  0.18165845  0.73029112  0.62916392     0.06100
C2516       C  0.18458902  0.71354527  0.63908289    -0.13600
Br2517     Br  0.22582992  0.71687515  0.66976112    -0.05600
Br2518     Br  0.19663416  0.62982407  0.65261281     0.00000
Br2519     Br  0.22946805  0.73450158  0.59487627     0.00400
Br2520     Br  0.16660856  0.70529369  0.65743213    -0.04000
Br2521     Br  0.24130905  0.68195750  0.69611285     0.00500
Br2522     Br  0.18390621  0.66474954  0.62463509    -0.03300
Br2523     Br  0.23632469  0.69454426  0.61806979    -0.04100
Br2524     Br  0.15907474  0.74445975  0.63295395    -0.00200
C2525       C  0.16270733  0.80330312  0.64900876     0.01300
C2526       C  0.16523335  0.79344029  0.66590582     0.04100
C2527       C  0.15361695  0.79715466  0.68125827    -0.12000
C2528       C  0.13953796  0.81080516  0.67984938     0.23400
C2529       C  0.13657909  0.82025886  0.66286401    -0.12500
C2530       C  0.14819837  0.81659030  0.64744384     0.04800
C2531       C  0.12890867  0.81603038  0.69675334     0.27200
C2532       C  0.11476248  0.80412588  0.70360625    -0.13200
C2533       C  0.10733262  0.80712783  0.72152841     0.05300
C2534       C  0.11335420  0.82261075  0.73210558    -0.09200
C2535       C  0.12631442  0.83540008  0.72458105     0.06100
C2536       C  0.13441406  0.83188716  0.70707408    -0.13600
Br2537     Br  0.11681546  0.83848572  0.66097984    -0.05600
Br2538     Br  0.18433563  0.77450925  0.66813476     0.00000
Br2539     Br  0.08924978  0.78984427  0.73173741     0.00400
Br2540     Br  0.15394571  0.84810806  0.69779642    -0.04000
Br2541     Br  0.14492965  0.83080590  0.62471701     0.00500
Br2542     Br  0.15716502  0.78370308  0.70441717    -0.03300
Br2543     Br  0.10620730  0.78335114  0.68867235    -0.04100
Br2544     Br  0.13398031  0.85701077  0.73884042    -0.00200
C2545       C  0.76944079  0.97612243  0.73561858     0.01300
C2546       C  0.75702760  0.97628142  0.75090049     0.04100
C2547       C  0.75668939  0.99170637  0.76302863    -0.12000
C2548       C  0.76896391  0.00683785  0.75999257     0.23400
C2549       C  0.78142967  0.00663011  0.74472971    -0.12500
C2550       C  0.78127929  0.99153637  0.73222119     0.04800
C2551       C  0.76802410  0.02358716  0.77203103     0.27200
C2552       C  0.75913175  0.03972984  0.76533179    -0.13200
C2553       C  0.76016289  0.05648933  0.77549991     0.05300
C2554       C  0.76884997  0.05681154  0.79331662    -0.09200
C2555       C  0.77617258  0.03990432  0.80073104     0.06100
C2556       C  0.77654899  0.02364378  0.78969289    -0.13600
Br2557     Br  0.79898210  0.02690723  0.74124775    -0.05600
Br2558     Br  0.73974921  0.95582906  0.75450591     0.00000
Br2559     Br  0.74930033  0.07862968  0.76456614     0.00400
Br2560     Br  0.78946973  0.00156088  0.79832741    -0.04000
Br2561     Br  0.79730864  0.99209847  0.71048244     0.00500
Br2562     Br  0.73939714  0.99219631  0.78372663    -0.03300
Br2563     Br  0.74560129  0.03868405  0.74198272    -0.04100
Br2564     Br  0.78612550  0.03836645  0.82574354    -0.00200
C2565       C  0.77322392  0.74950753  0.55665086     0.01300
C2566       C  0.77836104  0.76402333  0.54415394     0.04100
C2567       C  0.77099115  0.76451028  0.52596045    -0.12000
C2568       C  0.75764859  0.75120693  0.52038741     0.23400
C2569       C  0.75231196  0.73680796  0.53272405    -0.12500
C2570       C  0.76035062  0.73566882  0.55064680     0.04800
C2571       C  0.74920148  0.75240065  0.50150088     0.27200
C2572       C  0.73398820  0.76439350  0.49832588    -0.13200
C2573       C  0.72594336  0.76563498  0.48041944     0.05300
C2574       C  0.73239422  0.75399517  0.46575151    -0.09200
C2575       C  0.74753756  0.74166395  0.46922603     0.06100
C2576       C  0.75630050  0.74146677  0.48682340    -0.13600
Br2577     Br  0.73432313  0.71832244  0.52469833    -0.05600
Br2578     Br  0.79505009  0.78380580  0.55174640     0.00000
Br2579     Br  0.70649233  0.78382760  0.47622826     0.00400
Br2580     Br  0.77805498  0.72608898  0.49106093    -0.04000
Br2581     Br  0.75476890  0.71410066  0.56599347     0.00500
Br2582     Br  0.77968076  0.78298181  0.50824445    -0.03300
Br2583     Br  0.72399642  0.77883546  0.51881225    -0.04100
Br2584     Br  0.75543801  0.72346205  0.45089348    -0.00200
C2585       C  0.79176395  0.79505307  0.62591431     0.01300
C2586       C  0.78191988  0.79780971  0.64300674     0.04100
C2587       C  0.78053466  0.81579800  0.65077867    -0.12000
C2588       C  0.78808285  0.83127269  0.64130885     0.23400
C2589       C  0.79686507  0.82893326  0.62392779    -0.12500
C2590       C  0.79892839  0.81093284  0.61629839     0.04800
C2591       C  0.78699156  0.84998028  0.64999213     0.27200
C2592       C  0.77022187  0.86018824  0.64914096    -0.13200
C2593       C  0.76837123  0.87680695  0.65940152     0.05300
C2594       C  0.78348115  0.88342726  0.67021161    -0.09200
C2595       C  0.80057751  0.87366511  0.67030101     0.06100
C2596       C  0.80227745  0.85687631  0.66029072    -0.13600
Br2597     Br  0.80607331  0.85063841  0.61067861    -0.05600
Br2598     Br  0.77034263  0.77747568  0.65662932     0.00000
Br2599     Br  0.74462395  0.88960534  0.65971418     0.00400
Br2600     Br  0.82535534  0.84297944  0.66106310    -0.04000
Br2601     Br  0.81099996  0.80880506  0.59225976     0.00500
Br2602     Br  0.76868111  0.81941438  0.67485096    -0.03300
Br2603     Br  0.74962568  0.85098287  0.63435726    -0.04100
Br2604     Br  0.82181177  0.88340594  0.68381857    -0.00200
C2605       C  0.77785745  0.78434443  0.05247723     0.01300
C2606       C  0.76324651  0.79683238  0.04786667     0.04100
C2607       C  0.75341986  0.79461365  0.03105371    -0.12000
C2608       C  0.75893518  0.78084223  0.01817519     0.23400
C2609       C  0.77338818  0.76833746  0.02266152    -0.12500
C2610       C  0.78246023  0.76969708  0.04003158     0.04800
C2611       C  0.75005318  0.78032514  0.99954293     0.27200
C2612       C  0.73534441  0.76781123  0.99597201    -0.13200
C2613       C  0.72567944  0.76863098  0.97889243     0.05300
C2614       C  0.73035089  0.78251491  0.96544821    -0.09200
C2615       C  0.74577203  0.79458668  0.96892638     0.06100
C2616       C  0.75558313  0.79334097  0.98587929    -0.13600
Br2617     Br  0.78102383  0.74972469  0.00470892    -0.05600
Br2618     Br  0.75753681  0.81816731  0.06342951     0.00000
Br2619     Br  0.70636405  0.75027185  0.97423222     0.00400
Br2620     Br  0.77613509  0.81019761  0.99102410    -0.04000
Br2621     Br  0.80062702  0.75098700  0.04686457     0.00500
Br2622     Br  0.73255977  0.81073787  0.02530783    -0.03300
Br2623     Br  0.72795390  0.75011902  0.01502834    -0.04100
Br2624     Br  0.75318223  0.81403251  0.95156893    -0.00200
C2625       C  0.45401880  0.75825281  0.74865410     0.01300
C2626       C  0.46032635  0.77061654  0.73457891     0.04100
C2627       C  0.47658086  0.78116390  0.73746550    -0.12000
C2628       C  0.48715329  0.77847070  0.75379768     0.23400
C2629       C  0.48056657  0.76670920  0.76813578    -0.12500
C2630       C  0.46368154  0.75701124  0.76578860     0.04800
C2631       C  0.50609616  0.78644313  0.75478555     0.27200
C2632       C  0.52056477  0.77781885  0.74471932    -0.13200
C2633       C  0.53826228  0.78625735  0.74376982     0.05300
C2634       C  0.54143870  0.80375928  0.75268044    -0.09200
C2635       C  0.52719728  0.81124142  0.76443325     0.06100
C2636       C  0.50947987  0.80278234  0.76502078    -0.13600
Br2637     Br  0.49519962  0.76311859  0.79048393    -0.05600
Br2638     Br  0.44817931  0.77177260  0.71048292     0.00000
Br2639     Br  0.55743510  0.77299735  0.72997281     0.00400
Br2640     Br  0.48942439  0.81392745  0.77927150    -0.04000
Br2641     Br  0.45379063  0.74222690  0.78614829     0.00500
Br2642     Br  0.48511150  0.79855560  0.71858917    -0.03300
Br2643     Br  0.51562704  0.75470652  0.73147707    -0.04100
Br2644     Br  0.53162986  0.83231654  0.78077036    -0.00200
C2645       C  0.66065849  0.80885486  0.87738351     0.01300
C2646       C  0.66674702  0.82130481  0.86309393     0.04100
C2647       C  0.65492286  0.82571219  0.84807914    -0.12000
C2648       C  0.63773079  0.81643820  0.84609146     0.23400
C2649       C  0.63139297  0.80418618  0.86001212    -0.12500
C2650       C  0.64223658  0.80101043  0.87608024     0.04800
C2651       C  0.62749964  0.81806127  0.82824620     0.27200
C2652       C  0.61143244  0.82919852  0.82687654    -0.13200
C2653       C  0.60230821  0.83115167  0.80958856     0.05300
C2654       C  0.61010600  0.82304628  0.79319065    -0.09200
C2655       C  0.62604654  0.81127301  0.79495688     0.06100
C2656       C  0.63433730  0.80856058  0.81250655    -0.13600
Br2657     Br  0.60807880  0.79088416  0.85641251    -0.05600
Br2658     Br  0.69146428  0.83246986  0.86260076     0.00000
Br2659     Br  0.57849023  0.84388471  0.80929967     0.00400
Br2660     Br  0.65552727  0.79195846  0.81515613    -0.04000
Br2661     Br  0.63121015  0.78552512  0.89538328     0.00500
Br2662     Br  0.66237745  0.84397752  0.82950542    -0.03300
Br2663     Br  0.60219362  0.84202815  0.84876990    -0.04100
Br2664     Br  0.63766377  0.79889378  0.77385422    -0.00200
C2665       C  0.63602478  0.86514029  0.72956914     0.01300
C2666       C  0.64318869  0.86628908  0.71123745     0.04100
C2667       C  0.65940402  0.87680778  0.70768780    -0.12000
C2668       C  0.66925270  0.88499490  0.72260985     0.23400
C2669       C  0.66235765  0.88352355  0.74099336    -0.12500
C2670       C  0.64544260  0.87408118  0.74441026     0.04800
C2671       C  0.68763879  0.89377145  0.71906724     0.27200
C2672       C  0.70357310  0.88237779  0.71777530    -0.13200
C2673       C  0.72109981  0.89042751  0.71418487     0.05300
C2674       C  0.72275002  0.90998359  0.71173044    -0.09200
C2675       C  0.70669574  0.92136145  0.71268804     0.06100
C2676       C  0.68917282  0.91324617  0.71659021    -0.13600
Br2677     Br  0.67657709  0.89372014  0.76151087    -0.05600
Br2678     Br  0.63101989  0.85333254  0.69096122     0.00000
Br2679     Br  0.74265936  0.87430475  0.71192886     0.00400
Br2680     Br  0.66723582  0.92869425  0.71885460    -0.04000
Br2681     Br  0.63581646  0.87248372  0.76960413     0.00500
Br2682     Br  0.66834946  0.87994734  0.68241671    -0.03300
Br2683     Br  0.70130072  0.85563648  0.72097574    -0.04100
Br2684     Br  0.70867864  0.94806147  0.70938098    -0.00200
C2685       C  0.96029418  0.75484109  0.77370234     0.01300
C2686       C  0.97431075  0.74779535  0.76161693     0.04100
C2687       C  0.99203485  0.75634597  0.76100645    -0.12000
C2688       C  0.99569958  0.77213975  0.77210071     0.23400
C2689       C  0.98160275  0.77970501  0.78350095    -0.12500
C2690       C  0.96403444  0.77099334  0.78454629     0.04800
C2691       C  0.01465528  0.78034235  0.77280303     0.27200
C2692       C  0.02627369  0.77627819  0.78812139    -0.13200
C2693       C  0.04297993  0.78625942  0.79062902     0.05300
C2694       C  0.04879205  0.79939247  0.77704437    -0.09200
C2695       C  0.03765819  0.80258761  0.76107952     0.06100
C2696       C  0.02037703  0.79339889  0.75922189    -0.13600
Br2697     Br  0.98678481  0.80172578  0.79831242    -0.05600
Br2698     Br  0.96944201  0.72663173  0.74557258     0.00000
Br2699     Br  0.05672915  0.78315373  0.81366115     0.00400
Br2700     Br  0.00421162  0.79906040  0.73842804    -0.04000
Br2701     Br  0.94604133  0.78055679  0.80230958     0.00500
Br2702     Br  0.01161286  0.74617406  0.74547114    -0.03300
Br2703     Br  0.01893113  0.75731751  0.80593779    -0.04100
Br2704     Br  0.04612800  0.81914574  0.74147582    -0.00200
C2705       C  0.89350221  0.72096516  0.73098647     0.01300
C2706       C  0.88176293  0.70557958  0.72699306     0.04100
C2707       C  0.87028571  0.70591611  0.71103571    -0.12000
C2708       C  0.87024972  0.72173906  0.69930703     0.23400
C2709       C  0.88279510  0.73656180  0.70267976    -0.12500
C2710       C  0.89468346  0.73597026  0.71827699     0.04800
C2711       C  0.85673472  0.72308063  0.68367614     0.27200
C2712       C  0.86219966  0.71795156  0.66553952    -0.13200
C2713       C  0.84981864  0.72032731  0.65048892     0.05300
C2714       C  0.83194362  0.72837371  0.65342134    -0.09200
C2715       C  0.82616782  0.73254854  0.67187288     0.06100
C2716       C  0.83861164  0.73001548  0.68690899    -0.13600
Br2717     Br  0.88294727  0.75811839  0.68646294    -0.05600
Br2718     Br  0.88015746  0.68470429  0.74404878     0.00000
Br2719     Br  0.85739166  0.71164638  0.62603751     0.00400
Br2720     Br  0.83123701  0.73681148  0.71197614    -0.04000
Br2721     Br  0.91277455  0.75562050  0.72226428     0.00500
Br2722     Br  0.85394063  0.68513571  0.70560045    -0.03300
Br2723     Br  0.88699111  0.70816975  0.66137601    -0.04100
Br2724     Br  0.80166440  0.74251015  0.67685147    -0.00200
C2725       C  0.74482905  0.57039248  0.77534428     0.01300
C2726       C  0.73229784  0.56498414  0.76103046     0.04100
C2727       C  0.73371639  0.54709192  0.75292764    -0.12000
C2728       C  0.74723238  0.53434997  0.75942694     0.23400
C2729       C  0.76019147  0.54000562  0.77309745    -0.12500
C2730       C  0.75932718  0.55813455  0.78063989     0.04800
C2731       C  0.74690266  0.51460816  0.75292884     0.27200
C2732       C  0.73389901  0.50203366  0.76072232    -0.13200
C2733       C  0.73279268  0.48351616  0.75414927     0.05300
C2734       C  0.74522319  0.47716373  0.74005441    -0.09200
C2735       C  0.75903520  0.48962879  0.73310962     0.06100
C2736       C  0.75954109  0.50837059  0.73921489    -0.13600
Br2737     Br  0.77838115  0.52245106  0.78236163    -0.05600
Br2738     Br  0.71210357  0.58119337  0.75345719     0.00000
Br2739     Br  0.71323523  0.46764765  0.76397075     0.00400
Br2740     Br  0.77731504  0.52575898  0.72861031    -0.04000
Br2741     Br  0.77832886  0.56627121  0.79797463     0.00500
Br2742     Br  0.71649046  0.53953642  0.73358304    -0.03300
Br2743     Br  0.71735690  0.51045103  0.78037355    -0.04100
Br2744     Br  0.77803720  0.48105125  0.71596992    -0.00200
C2745       C  0.78545043  0.63800107  0.80951125     0.01300
C2746       C  0.78874067  0.65129466  0.82369622     0.04100
C2747       C  0.80462267  0.66286371  0.82279839    -0.12000
C2748       C  0.81766003  0.66050810  0.80823705     0.23400
C2749       C  0.81517207  0.64611390  0.79501771    -0.12500
C2750       C  0.79886941  0.63512977  0.79542318     0.04800
C2751       C  0.83339225  0.67380000  0.80605085     0.27200
C2752       C  0.83220384  0.68817857  0.79262620    -0.13200
C2753       C  0.84765958  0.69986119  0.78925461     0.05300
C2754       C  0.86429499  0.69728078  0.79948671    -0.09200
C2755       C  0.86510843  0.68352223  0.81362366     0.06100
C2756       C  0.84970481  0.67171637  0.81680556    -0.13600
Br2757     Br  0.83389379  0.64190219  0.77605312    -0.05600
Br2758     Br  0.77105994  0.65439212  0.84384076     0.00000
Br2759     Br  0.84630001  0.71846617  0.76970363     0.00400
Br2760     Br  0.85105197  0.65237988  0.83557003    -0.04000
Br2761     Br  0.79474682  0.61625162  0.77663626     0.00500
Br2762     Br  0.80802063  0.68263188  0.84084262    -0.03300
Br2763     Br  0.80946704  0.69149998  0.77851475    -0.04100
Br2764     Br  0.88715616  0.68105793  0.82898169    -0.00200
C2765       C  0.71819186  0.66237491  0.83924166     0.01300
C2766       C  0.72492517  0.68026517  0.83402609     0.04100
C2767       C  0.72132355  0.69584451  0.84542769    -0.12000
C2768       C  0.71125262  0.69370520  0.86220279     0.23400
C2769       C  0.70445386  0.67599191  0.86746284    -0.12500
C2770       C  0.70781171  0.66035105  0.85600766     0.04800
C2771       C  0.70800814  0.71020116  0.87431003     0.27200
C2772       C  0.72219409  0.71642023  0.88646129    -0.13200
C2773       C  0.71986156  0.73308672  0.89663767     0.05300
C2774       C  0.70302998  0.74321689  0.89521047    -0.09200
C2775       C  0.68876381  0.73682303  0.88319746     0.06100
C2776       C  0.69127784  0.72038576  0.87272499    -0.13600
Br2777     Br  0.69063541  0.67327868  0.89050840    -0.05600
Br2778     Br  0.74025356  0.68361478  0.81198579     0.00000
Br2779     Br  0.73989353  0.74219760  0.91222107     0.00400
Br2780     Br  0.67216979  0.71216761  0.85555304    -0.04000
Br2781     Br  0.69750045  0.63640025  0.86322189     0.00500
Br2782     Br  0.73041463  0.72027020  0.83825710    -0.03300
Br2783     Br  0.74495018  0.70217908  0.88878523    -0.04100
Br2784     Br  0.66647620  0.75146874  0.87967671    -0.00200
C2785       C  0.83026438  0.94522554  0.69454691     0.01300
C2786       C  0.84050349  0.95299557  0.70951392     0.04100
C2787       C  0.85967530  0.95649906  0.70745638    -0.12000
C2788       C  0.86865391  0.95220161  0.69051575     0.23400
C2789       C  0.85858131  0.94413765  0.67567166    -0.12500
C2790       C  0.83930985  0.94085414  0.67758234     0.04800
C2791       C  0.88862037  0.95678777  0.68819209     0.27200
C2792       C  0.89381513  0.97494090  0.68285626    -0.13200
C2793       C  0.91278910  0.97977035  0.68138603     0.05300
C2794       C  0.92680007  0.96592654  0.68380733    -0.09200
C2795       C  0.92130902  0.94763315  0.68961797     0.06100
C2796       C  0.90227779  0.94332886  0.69211293    -0.13600
Br2797     Br  0.87141193  0.93702061  0.65303803    -0.05600
Br2798     Br  0.82834941  0.95924172  0.73281145     0.00000
Br2799     Br  0.91890407  0.00584052  0.67746441     0.00400
Br2800     Br  0.89461117  0.91889744  0.70090584    -0.04000
Br2801     Br  0.82562817  0.92945835  0.65730579     0.00500
Br2802     Br  0.87386859  0.96684506  0.72794148    -0.03300
Br2803     Br  0.87463067  0.99314646  0.67745789    -0.04100
Br2804     Br  0.93905290  0.92774228  0.69397960    -0.00200
C2805       C  0.18467404  0.94782987  0.58411990     0.01300
C2806       C  0.20306502  0.94191594  0.58814807     0.04100
C2807       C  0.20688067  0.92276682  0.59083501    -0.12000
C2808       C  0.19226478  0.90954458  0.59014992     0.23400
C2809       C  0.17383748  0.91549779  0.58675209    -0.12500
C2810       C  0.17008973  0.93448379  0.58331717     0.04800
C2811       C  0.19611138  0.88925114  0.59240170     0.27200
C2812       C  0.19743945  0.87774082  0.57647369    -0.13200
C2813       C  0.19907675  0.85823035  0.57846561     0.05300
C2814       C  0.19925808  0.85010504  0.59642484    -0.09200
C2815       C  0.19841862  0.86170571  0.61240234     0.06100
C2816       C  0.19697827  0.88123729  0.61036718    -0.13600
Br2817     Br  0.15367070  0.89749460  0.58708517    -0.05600
Br2818     Br  0.22325085  0.95984940  0.58910059     0.00000
Br2819     Br  0.20147366  0.84269015  0.55656459     0.00400
Br2820     Br  0.19550286  0.89704798  0.63216733    -0.04000
Br2821     Br  0.14474650  0.94206787  0.57801605     0.00500
Br2822     Br  0.23214759  0.91449257  0.59511681    -0.03300
Br2823     Br  0.19654799  0.88881008  0.55189729    -0.04100
Br2824     Br  0.19774926  0.85088325  0.63715003    -0.00200
C2825       C  0.03513565  0.98415975  0.65057224     0.01300
C2826       C  0.04518366  0.00069072  0.65423932     0.04100
C2827       C  0.06288517  0.00337206  0.64614593    -0.12000
C2828       C  0.07004176  0.98994033  0.63367322     0.23400
C2829       C  0.05986100  0.97350879  0.62986397    -0.12500
C2830       C  0.04274384  0.97028463  0.63887923     0.04800
C2831       C  0.08825709  0.99296566  0.62443940     0.27200
C2832       C  0.08932496  0.00407309  0.60824359    -0.13200
C2833       C  0.10630408  0.00562792  0.59850166     0.05300
C2834       C  0.12233779  0.99619919  0.60510493    -0.09200
C2835       C  0.12134010  0.98555504  0.62169915     0.06100
C2836       C  0.10428119  0.98392406  0.63131584    -0.13600
Br2837     Br  0.06900925  0.95584451  0.61164156    -0.05600
Br2838     Br  0.03481229  0.01939138  0.67066118     0.00000
Br2839     Br  0.10751409  0.02130048  0.57650744     0.00400
Br2840     Br  0.10265189  0.96915689  0.65386148    -0.04000
Br2841     Br  0.02963163  0.94699689  0.63488574     0.00500
Br2842     Br  0.07729762  0.02542529  0.65194806    -0.03300
Br2843     Br  0.06743002  0.01713067  0.59945596    -0.04100
Br2844     Br  0.14299222  0.97237925  0.63085642    -0.00200
C2845       C  0.09151992  0.22381875  0.68111910     0.01300
C2846       C  0.07274469  0.22569173  0.67564825     0.04100
C2847       C  0.06762209  0.22217304  0.65702247    -0.12000
C2848       C  0.08135603  0.21697503  0.64388958     0.23400
C2849       C  0.10029327  0.21614755  0.64918427    -0.12500
C2850       C  0.10540549  0.21972765  0.66777283     0.04800
C2851       C  0.07592431  0.21106890  0.62484881     0.27200
C2852       C  0.07342889  0.19192021  0.62105903    -0.13200
C2853       C  0.06967202  0.18595718  0.60275369     0.05300
C2854       C  0.06852725  0.19915001  0.58811314    -0.09200
C2855       C  0.07087613  0.21835980  0.59195932     0.06100
C2856       C  0.07442726  0.22431177  0.61036894    -0.13600
Br2857     Br  0.11904291  0.20894328  0.63116302    -0.05600
Br2858     Br  0.05422255  0.23328283  0.69375224     0.00000
Br2859     Br  0.06728748  0.15953069  0.59768766     0.00400
Br2860     Br  0.07747416  0.25053437  0.61588539    -0.04000
Br2861     Br  0.13130364  0.21801520  0.67510894     0.00500
Br2862     Br  0.04175991  0.22355383  0.64969295    -0.03300
Br2863     Br  0.07576960  0.17382935  0.64097937    -0.04100
Br2864     Br  0.06888602  0.23655510  0.57215216    -0.00200
C2865       C  0.15170263  0.05685922  0.57076653     0.01300
C2866       C  0.15309925  0.06730648  0.55411623     0.04100
C2867       C  0.14160259  0.08297784  0.55136417    -0.12000
C2868       C  0.12856554  0.08813268  0.56518237     0.23400
C2869       C  0.12774746  0.07827822  0.58218726    -0.12500
C2870       C  0.13949262  0.06281690  0.58512091     0.04800
C2871       C  0.11534844  0.10359779  0.56155016     0.27200
C2872       C  0.12008242  0.12197084  0.56667661    -0.13200
C2873       C  0.10812266  0.13681711  0.56207509     0.05300
C2874       C  0.09126558  0.13329489  0.55237077    -0.09200
C2875       C  0.08591610  0.11466101  0.54847009     0.06100
C2876       C  0.09813546  0.09989295  0.55276350    -0.13600
Br2877     Br  0.10974184  0.08544528  0.60097356    -0.05600
Br2878     Br  0.17089337  0.06016849  0.53515546     0.00000
Br2879     Br  0.11456289  0.16184557  0.57002712     0.00400
Br2880     Br  0.09162354  0.07452319  0.54620633    -0.04000
Br2881     Br  0.13776145  0.04919236  0.60836888     0.00500
Br2882     Br  0.14311080  0.09703707  0.52838663    -0.03300
Br2883     Br  0.14308669  0.12669702  0.57991665    -0.04100
Br2884     Br  0.06220640  0.10909893  0.53682228    -0.00200
C2885       C  0.93210544  0.83777934  0.33522404     0.01300
C2886       C  0.91804679  0.83824523  0.34909347     0.04100
C2887       C  0.92284231  0.84143510  0.36784267    -0.12000
C2888       C  0.94168641  0.84408097  0.37286825     0.23400
C2889       C  0.95576651  0.84350133  0.35907504    -0.12500
C2890       C  0.95099658  0.84026431  0.34026927     0.04800
C2891       C  0.94650361  0.84764649  0.39269177     0.27200
C2892       C  0.94988788  0.86605666  0.39878959    -0.13200
C2893       C  0.95314772  0.86962993  0.41781643     0.05300
C2894       C  0.95263992  0.85482117  0.43089750    -0.09200
C2895       C  0.94953925  0.83636424  0.42474521     0.06100
C2896       C  0.94666649  0.83276878  0.40562957    -0.13600
Br2897     Br  0.98155618  0.84719444  0.36601873    -0.05600
Br2898     Br  0.89201342  0.83530931  0.34247407     0.00000
Br2899     Br  0.95736958  0.89506311  0.42593609     0.00400
Br2900     Br  0.94281913  0.80748507  0.39705118    -0.04000
Br2901     Br  0.97042387  0.83820231  0.32163711     0.00500
Br2902     Br  0.90351542  0.84255176  0.38669168    -0.03300
Br2903     Br  0.94948413  0.88646735  0.38109957    -0.04100
Br2904     Br  0.94983106  0.81594669  0.44238091    -0.00200
C2905       C  0.97580478  0.94127877  0.62348202     0.01300
C2906       C  0.96713574  0.92350881  0.62461654     0.04100
C2907       C  0.96486841  0.91258709  0.60839824    -0.12000
C2908       C  0.97159982  0.91911946  0.59110008     0.23400
C2909       C  0.98105807  0.93634810  0.59005411    -0.12500
C2910       C  0.98300426  0.94751240  0.60609765     0.04800
C2911       C  0.96832082  0.90818371  0.57381221     0.27200
C2912       C  0.98153897  0.89490225  0.56785427    -0.13200
C2913       C  0.97905903  0.88555208  0.55073911     0.05300
C2914       C  0.96326905  0.88935920  0.53961771    -0.09200
C2915       C  0.94988784  0.90245632  0.54573816     0.06100
C2916       C  0.95241460  0.91183413  0.56282725    -0.13600
Br2917     Br  0.99142758  0.94454087  0.56648669    -0.05600
Br2918     Br  0.95750206  0.91423062  0.64802811     0.00000
Br2919     Br  0.99737413  0.86763291  0.54240884     0.00400
Br2920     Br  0.93453788  0.93032151  0.57090993    -0.04000
Br2921     Br  0.99622217  0.97105430  0.60403136     0.00500
Br2922     Br  0.95226725  0.88872785  0.60964039    -0.03300
Br2923     Br  0.00332305  0.89006977  0.58292604    -0.04100
Br2924     Br  0.92890963  0.90875822  0.53002029    -0.00200
C2925       C  0.81685096  0.20015849  0.44348051     0.01300
C2926       C  0.80043126  0.18966253  0.44747500     0.04100
C2927       C  0.80152728  0.17028175  0.45057866    -0.12000
C2928       C  0.81892056  0.16126839  0.44992915     0.23400
C2929       C  0.83537369  0.17171049  0.44720998    -0.12500
C2930       C  0.83445804  0.19116728  0.44454590     0.04800
C2931       C  0.82011409  0.14079269  0.45260319     0.27200
C2932       C  0.82461455  0.13354850  0.47024520    -0.13200
C2933       C  0.82774695  0.11429309  0.47250630     0.05300
C2934       C  0.82668073  0.10205043  0.45684951    -0.09200
C2935       C  0.82042057  0.10938196  0.43941575     0.06100
C2936       C  0.81744798  0.12872380  0.43736965    -0.13600
Br2937     Br  0.85920609  0.15904513  0.44667179    -0.05600
Br2938     Br  0.77638955  0.20167969  0.45023774     0.00000
Br2939     Br  0.83273446  0.10532898  0.49755059     0.00400
Br2940     Br  0.81033321  0.13905433  0.41343661    -0.04000
Br2941     Br  0.85763211  0.20490300  0.44281498     0.00500
Br2942     Br  0.77921898  0.15584407  0.45561506    -0.03300
Br2943     Br  0.82693938  0.15038940  0.49124258    -0.04100
Br2944     Br  0.81595333  0.09379021  0.41775018    -0.00200
C2945       C  0.87061946  0.99580597  0.46296694     0.01300
C2946       C  0.87331619  0.98611839  0.48000221     0.04100
C2947       C  0.88442343  0.96997374  0.48044872    -0.12000
C2948       C  0.89333441  0.96372456  0.46408398     0.23400
C2949       C  0.89036968  0.97295299  0.44701055    -0.12500
C2950       C  0.87875675  0.98876280  0.44632126     0.04800
C2951       C  0.90610970  0.94758337  0.46514383     0.27200
C2952       C  0.92424199  0.95004547  0.47232690    -0.13200
C2953       C  0.93539252  0.93441935  0.47631737     0.05300
C2954       C  0.92870370  0.91625472  0.47224935    -0.09200
C2955       C  0.91097413  0.91400020  0.46369692     0.06100
C2956       C  0.89961296  0.92964087  0.46047845    -0.13600
Br2957     Br  0.90292026  0.96425190  0.42474795    -0.05600
Br2958     Br  0.86176021  0.99453582  0.50289403     0.00000
Br2959     Br  0.95897676  0.93819472  0.48891227     0.00400
Br2960     Br  0.87486714  0.92655982  0.45013599    -0.04000
Br2961     Br  0.87522675  0.00111311  0.42255194     0.00500
Br2962     Br  0.88778208  0.95638740  0.50357761    -0.03300
Br2963     Br  0.93349571  0.97495857  0.47714957    -0.04100
Br2964     Br  0.90203982  0.88967615  0.45588262    -0.00200
C2965       C  0.07823642  0.06632243  0.34348432     0.01300
C2966       C  0.08604693  0.06251447  0.32583553     0.04100
C2967       C  0.10541136  0.06455227  0.32304900    -0.12000
C2968       C  0.11688616  0.07011560  0.33803204     0.23400
C2969       C  0.10934480  0.07164036  0.35614539    -0.12500
C2970       C  0.09001371  0.06964681  0.35889748     0.04800
C2971       C  0.13595256  0.07730038  0.33442679     0.27200
C2972       C  0.15160718  0.06547140  0.33543463    -0.13200
C2973       C  0.16970774  0.07298207  0.33331367     0.05300
C2974       C  0.17208886  0.09233644  0.33011087    -0.09200
C2975       C  0.15634473  0.10410739  0.32911847     0.06100
C2976       C  0.13833622  0.09657793  0.33116623    -0.13600
Br2977     Br  0.12542135  0.07779915  0.37688478    -0.05600
Br2978     Br  0.07029881  0.05403950  0.30577430     0.00000
Br2979     Br  0.19113088  0.05667929  0.33443203     0.00400
Br2980     Br  0.11677814  0.11276046  0.33000234    -0.04000
Br2981     Br  0.07963760  0.07230924  0.38364818     0.00500
Br2982     Br  0.11615462  0.06069005  0.29863845    -0.03300
Br2983     Br  0.14811680  0.03910213  0.33989634    -0.04100
Br2984     Br  0.15938026  0.13080558  0.32629792    -0.00200
C2985       C  0.96815049  0.08277941  0.36945390     0.01300
C2986       C  0.95326655  0.07076018  0.36489847     0.04100
C2987       C  0.93744575  0.06985153  0.37650066    -0.12000
C2988       C  0.93649160  0.08101574  0.39267947     0.23400
C2989       C  0.95040769  0.09454660  0.39609687    -0.12500
C2990       C  0.96622584  0.09549777  0.38440306     0.04800
C2991       C  0.92181502  0.07702506  0.40677432     0.27200
C2992       C  0.90481529  0.08683691  0.40650014    -0.13200
C2993       C  0.89000098  0.08109560  0.41812174     0.05300
C2994       C  0.89207537  0.06541908  0.42990596    -0.09200
C2995       C  0.90940865  0.05614513  0.43081451     0.06100
C2996       C  0.92429930  0.06204346  0.41935180    -0.13600
Br2997     Br  0.94832763  0.11089466  0.41740978    -0.05600
Br2998     Br  0.95477445  0.05538834  0.34290062     0.00000
Br2999     Br  0.86701821  0.09502841  0.41823137     0.00400
Br3000     Br  0.94806163  0.04934693  0.42042335    -0.04000
Br3001     Br  0.98587116  0.11321303  0.38978040     0.00500
Br3002     Br  0.91754416  0.05246852  0.37097933    -0.03300
Br3003     Br  0.90180292  0.10788479  0.38992834    -0.04100
Br3004     Br  0.91246557  0.03470993  0.44691212    -0.00200
C3005       C  0.03599190  0.10076381  0.40170083     0.01300
C3006       C  0.04864442  0.11605433  0.40102312     0.04100
C3007       C  0.05163341  0.12712024  0.41696684    -0.12000
C3008       C  0.04249623  0.12277827  0.43381293     0.23400
C3009       C  0.03018989  0.10742200  0.43473811    -0.12500
C3010       C  0.02690049  0.09639979  0.41876768     0.04800
C3011       C  0.04639348  0.13399153  0.45077638     0.27200
C3012       C  0.06157716  0.12920258  0.46231515    -0.13200
C3013       C  0.06509407  0.13946049  0.47868743     0.05300
C3014       C  0.05332768  0.15442885  0.48362922    -0.09200
C3015       C  0.03843815  0.15954478  0.47184374     0.06100
C3016       C  0.03501252  0.14937334  0.45536790    -0.13600
Br3017     Br  0.01753920  0.10185954  0.45794701    -0.05600
Br3018     Br  0.06277360  0.12167915  0.37862322     0.00000
Br3019     Br  0.08559041  0.13253143  0.49472912     0.00400
Br3020     Br  0.01470884  0.15633427  0.43910698    -0.04000
Br3021     Br  0.00912555  0.07606467  0.42043545     0.00500
Br3022     Br  0.06808913  0.14853714  0.41580518    -0.03300
Br3023     Br  0.07729476  0.10831532  0.45577608    -0.04100
Br3024     Br  0.02296708  0.18065898  0.47820530    -0.00200
C3025       C  0.83367801  0.10040734  0.82391517     0.01300
C3026       C  0.84299260  0.08385303  0.82925572     0.04100
C3027       C  0.86260928  0.08363361  0.83076527    -0.12000
C3028       C  0.87304499  0.09991694  0.82699826     0.23400
C3029       C  0.86388614  0.11645651  0.82174441    -0.12500
C3030       C  0.84429168  0.11678733  0.82026869     0.04800
C3031       C  0.89357621  0.09999179  0.82977320     0.27200
C3032       C  0.90089624  0.10422928  0.84751900    -0.13200
C3033       C  0.92025620  0.10328231  0.85060890     0.05300
C3034       C  0.93247498  0.09907239  0.83570861    -0.09200
C3035       C  0.92521237  0.09579388  0.81770360     0.06100
C3036       C  0.90573279  0.09579766  0.81484401    -0.13600
Br3037     Br  0.87833633  0.13885443  0.81724130    -0.05600
Br3038     Br  0.82920152  0.06124976  0.83416659     0.00000
Br3039     Br  0.92996630  0.10764359  0.87536184     0.00400
Br3040     Br  0.89556994  0.08952694  0.79069849    -0.04000
Br3041     Br  0.83222894  0.14029580  0.81465182     0.00500
Br3042     Br  0.87533793  0.06110222  0.83831778    -0.03300
Br3043     Br  0.88425856  0.11129850  0.86756753    -0.04100
Br3044     Br  0.94188703  0.09070240  0.79714642    -0.00200
C3045       C  0.99394318  0.06101233  0.79995654     0.01300
C3046       C  0.97923976  0.04885978  0.79471258     0.04100
C3047       C  0.97918039  0.04064730  0.77685545    -0.12000
C3048       C  0.99401105  0.04405382  0.76431054     0.23400
C3049       C  0.00895661  0.05572279  0.76969078    -0.12500
C3050       C  0.00900473  0.06406271  0.78751045     0.04800
C3051       C  0.99415826  0.03448906  0.74588016     0.27200
C3052       C  0.00519567  0.01846589  0.74328849    -0.13200
C3053       C  0.00410359  0.00833315  0.72649869     0.05300
C3054       C  0.99039291  0.01288484  0.71294896    -0.09200
C3055       C  0.97985531  0.02954277  0.71530467     0.06100
C3056       C  0.98234131  0.04061139  0.73142072    -0.13600
Br3057     Br  0.02924874  0.06043250  0.75250461    -0.05600
Br3058     Br  0.95876315  0.04361346  0.81158562     0.00000
Br3059     Br  0.02254954  0.98917396  0.72187040     0.00400
Br3060     Br  0.96925425  0.06405763  0.73409413    -0.04000
Br3061     Br  0.03033816  0.07872516  0.79524477     0.00500
Br3062     Br  0.95851978  0.02490779  0.76936081    -0.03300
Br3063     Br  0.02127055  0.00989643  0.76318142    -0.04100
Br3064     Br  0.96113135  0.03716347  0.69743399    -0.00200
C3065       C  0.20626156  0.19514186  0.92928695     0.01300
C3066       C  0.20498859  0.18866795  0.94783982     0.04100
C3067       C  0.20114943  0.16973854  0.95134325    -0.12000
C3068       C  0.19841390  0.15738315  0.93629929     0.23400
C3069       C  0.19995033  0.16374527  0.91776076    -0.12500
C3070       C  0.20416418  0.18257950  0.91421960     0.04800
C3071       C  0.19334424  0.13775832  0.93991896     0.27200
C3072       C  0.20738307  0.12406320  0.94102318    -0.13200
C3073       C  0.20246412  0.10527689  0.94396651     0.05300
C3074       C  0.18349778  0.10033082  0.94604246    -0.09200
C3075       C  0.16945614  0.11408243  0.94485141     0.06100
C3076       C  0.17440157  0.13279550  0.94176945    -0.13600
Br3077     Br  0.19538728  0.14672393  0.89730649    -0.05600
Br3078     Br  0.20891743  0.20565955  0.96841496     0.00000
Br3079     Br  0.22172089  0.08650314  0.94571741     0.00400
Br3080     Br  0.15526178  0.15167406  0.93982036    -0.04000
Br3081     Br  0.20609209  0.19115683  0.88868276     0.00500
Br3082     Br  0.19911977  0.16071378  0.97667975    -0.03300
Br3083     Br  0.23329027  0.13120670  0.93858352    -0.04100
Br3084     Br  0.14334313  0.10724807  0.94645224    -0.00200
C3085       C  0.12081872  0.06078292  0.92191132     0.01300
C3086       C  0.12426063  0.07075458  0.90514001     0.04100
C3087       C  0.10937470  0.07547525  0.89319863    -0.12000
C3088       C  0.09085816  0.07134850  0.89840881     0.23400
C3089       C  0.08728025  0.06210071  0.91545653    -0.12500
C3090       C  0.10220068  0.05644547  0.92698362     0.04800
C3091       C  0.07507353  0.07665779  0.88598637     0.27200
C3092       C  0.06676119  0.09443567  0.88758896    -0.13200
C3093       C  0.05044090  0.09863225  0.87740671     0.05300
C3094       C  0.04262631  0.08514984  0.86528823    -0.09200
C3095       C  0.05191206  0.06801789  0.86251700     0.06100
C3096       C  0.06793162  0.06366411  0.87302875    -0.13600
Br3097     Br  0.06180474  0.05721605  0.92294225    -0.05600
Br3098     Br  0.14916180  0.07928679  0.89895375     0.00000
Br3099     Br  0.03811112  0.12229212  0.88119985     0.00400
Br3100     Br  0.07974709  0.03963159  0.87022910    -0.04000
Br3101     Br  0.09697039  0.04191665  0.94915075     0.00500
Br3102     Br  0.11425326  0.08746772  0.86952089    -0.03300
Br3103     Br  0.07743159  0.11270730  0.90431213    -0.04100
Br3104     Br  0.04267291  0.05061710  0.84410147    -0.00200
C3105       C  0.08021119  0.83535924  0.84083966     0.01300
C3106       C  0.09344590  0.83529371  0.85541731     0.04100
C3107       C  0.08768382  0.83881433  0.87384172    -0.12000
C3108       C  0.06869020  0.84213740  0.87777600     0.23400
C3109       C  0.05539383  0.84183307  0.86331154    -0.12500
C3110       C  0.06112244  0.83833076  0.84484693     0.04800
C3111       C  0.06299205  0.84641157  0.89716224     0.27200
C3112       C  0.05963632  0.83175772  0.90989188    -0.13200
C3113       C  0.05686238  0.83575767  0.92892379     0.05300
C3114       C  0.05725514  0.85444235  0.93515729    -0.09200
C3115       C  0.05974509  0.86914898  0.92224074     0.06100
C3116       C  0.06262661  0.86511311  0.90324891    -0.13600
Br3117     Br  0.02944994  0.84662035  0.86883336    -0.05600
Br3118     Br  0.11961678  0.83127754  0.85016538     0.00000
Br3119     Br  0.05248714  0.81567534  0.94643893     0.00400
Br3120     Br  0.06696100  0.88509646  0.88560637    -0.04000
Br3121     Br  0.04267942  0.83679174  0.82521113     0.00500
Br3122     Br  0.10588010  0.83981713  0.89371972    -0.03300
Br3123     Br  0.05940608  0.80622986  0.90120954    -0.04100
Br3124     Br  0.06070487  0.89476635  0.93069615    -0.00200
C3125       C  0.08836852  0.91369172  0.97862286     0.01300
C3126       C  0.08215231  0.93198108  0.98312068     0.04100
C3127       C  0.09330742  0.94759853  0.97873550    -0.12000
C3128       C  0.11088225  0.94515427  0.97031230     0.23400
C3129       C  0.11714703  0.92716658  0.96566530    -0.12500
C3130       C  0.10593848  0.91145882  0.96961649     0.04800
C3131       C  0.12294518  0.96159059  0.96670240     0.27200
C3132       C  0.12063391  0.97208317  0.95021864    -0.13200
C3133       C  0.13118238  0.98843834  0.94743422     0.05300
C3134       C  0.14408789  0.99426388  0.96112958    -0.09200
C3135       C  0.14681595  0.98345255  0.97734383     0.06100
C3136       C  0.13627999  0.96707497  0.98010352    -0.13600
Br3137     Br  0.14120761  0.92428132  0.95373134    -0.05600
Br3138     Br  0.05894851  0.93619768  0.99628226     0.00000
Br3139     Br  0.12694560  0.00353989  0.92547285     0.00400
Br3140     Br  0.13974562  0.95230393  0.00239698    -0.04000
Br3141     Br  0.11479579  0.88720449  0.96169401     0.00500
Br3142     Br  0.08464677  0.97256370  0.98432402    -0.03300
Br3143     Br  0.10255611  0.96430683  0.93179459    -0.04100
Br3144     Br  0.16502647  0.99110020  0.99569781    -0.00200
C3145       C  0.08341776  0.95025766  0.20249719     0.01300
C3146       C  0.09295410  0.93319364  0.19998584     0.04100
C3147       C  0.11218932  0.93211188  0.20384963    -0.12000
C3148       C  0.12183990  0.94799816  0.21037959     0.23400
C3149       C  0.11211527  0.96470824  0.21389444    -0.12500
C3150       C  0.09295543  0.96588938  0.20987225     0.04800
C3151       C  0.14243684  0.94765397  0.21229223     0.27200
C3152       C  0.15062831  0.94433340  0.22976553    -0.13200
C3153       C  0.17020610  0.94444772  0.23165135     0.05300
C3154       C  0.18188565  0.94758902  0.21579997    -0.09200
C3155       C  0.17330206  0.95233756  0.19849893     0.06100
C3156       C  0.15370967  0.95182027  0.19673963    -0.13600
Br3157     Br  0.12536341  0.98624373  0.22337444    -0.05600
Br3158     Br  0.08020416  0.91178726  0.18954259     0.00000
Br3159     Br  0.18034587  0.94160134  0.25651507     0.00400
Br3160     Br  0.14201063  0.95649042  0.17282463    -0.04000
Br3161     Br  0.07994655  0.98913107  0.21410678     0.00500
Br3162     Br  0.12564202  0.90925144  0.19913244    -0.03300
Br3163     Br  0.13472780  0.93951768  0.25110693    -0.04100
Br3164     Br  0.18752676  0.96021193  0.17687954    -0.00200
C3165       C  0.01106976  0.04812706  0.30224536     0.01300
C3166       C  0.00066725  0.03131914  0.30074707     0.04100
C3167       C  0.00039054  0.02136818  0.28380022    -0.12000
C3168       C  0.01132039  0.02746757  0.26861156     0.23400
C3169       C  0.02110284  0.04449359  0.26970003    -0.12500
C3170       C  0.02026660  0.05528089  0.28610218     0.04800
C3171       C  0.01369265  0.01523736  0.25208623     0.27200
C3172       C  0.02524083  0.99938942  0.25346737    -0.13200
C3173       C  0.02734067  0.98742646  0.23809233     0.05300
C3174       C  0.01873231  0.99182273  0.22089063    -0.09200
C3175       C  0.00774614  0.00807779  0.21930015     0.06100
C3176       C  0.00477003  0.01946868  0.23505500    -0.13600
Br3177     Br  0.03674870  0.05236842  0.24905820    -0.05600
Br3178     Br  0.98636705  0.02176534  0.32156152     0.00000
Br3179     Br  0.04273060  0.96539608  0.24063532     0.00400
Br3180     Br  0.98834686  0.04075598  0.23345412    -0.04000
Br3181     Br  0.03236829  0.07951578  0.28586092     0.00500
Br3182     Br  0.98551000  0.99892351  0.28138781    -0.03300
Br3183     Br  0.03863554  0.99434983  0.27636452    -0.04100
Br3184     Br  0.99653214  0.01463499  0.19572666    -0.00200
C3185       C  0.04922006  0.91886236  0.13810289     0.01300
C3186       C  0.06596343  0.92243229  0.12821866     0.04100
C3187       C  0.06927001  0.91350908  0.11106657    -0.12000
C3188       C  0.05632661  0.90035448  0.10429657     0.23400
C3189       C  0.04118527  0.89466280  0.11550541    -0.12500
C3190       C  0.03752075  0.90391539  0.13242414     0.04800
C3191       C  0.05694425  0.89453360  0.08450610     0.27200
C3192       C  0.04676474  0.90484314  0.07131540    -0.13200
C3193       C  0.04615999  0.89911968  0.05255501     0.05300
C3194       C  0.05585235  0.88272844  0.04675490    -0.09200
C3195       C  0.06606618  0.87237856  0.06038487     0.06100
C3196       C  0.06674052  0.87849923  0.07907448    -0.13600
Br3197     Br  0.02467604  0.87515159  0.10676540    -0.05600
Br3198     Br  0.08461255  0.93916652  0.13833905     0.00000
Br3199     Br  0.03204158  0.91463178  0.03549015     0.00400
Br3200     Br  0.08103433  0.86499785  0.09755705    -0.04000
Br3201     Br  0.01559942  0.89679960  0.14658792     0.00500
Br3202     Br  0.09076060  0.92018978  0.09617321    -0.03300
Br3203     Br  0.03360570  0.92709687  0.07922575    -0.04100
Br3204     Br  0.07856826  0.84916471  0.05456186    -0.00200
C3205       C  0.83832969  0.94403977  0.06715516     0.01300
C3206       C  0.85059456  0.92920733  0.06287558     0.04100
C3207       C  0.84442363  0.91068545  0.06467444    -0.12000
C3208       C  0.82600904  0.90698796  0.07052551     0.23400
C3209       C  0.81348327  0.92171071  0.07392515    -0.12500
C3210       C  0.81962591  0.94027746  0.07227064     0.04800
C3211       C  0.82054074  0.88766803  0.07498082     0.27200
C3212       C  0.81505903  0.87529885  0.06069561    -0.13200
C3213       C  0.81179429  0.85639372  0.06492094     0.05300
C3214       C  0.81357526  0.85013672  0.08348185    -0.09200
C3215       C  0.81832638  0.86270325  0.09785435     0.06100
C3216       C  0.82201057  0.88143504  0.09356998    -0.13600
Br3217     Br  0.78809784  0.91626881  0.08135734    -0.05600
Br3218     Br  0.87621297  0.93396587  0.05563998     0.00000
Br3219     Br  0.80482758  0.83911717  0.04543761     0.00400
Br3220     Br  0.82976543  0.89846170  0.11304890    -0.04000
Br3221     Br  0.80217392  0.96041900  0.07647738     0.00500
Br3222     Br  0.86141971  0.89026653  0.05999273    -0.03300
Br3223     Br  0.81234287  0.88431377  0.03544171    -0.04100
Br3224     Br  0.82069169  0.85413757  0.12333530    -0.00200
C3225       C  0.90530688  0.98185970  0.09072677     0.01300
C3226       C  0.92191090  0.99237319  0.08921117     0.04100
C3227       C  0.93762294  0.98745105  0.09995347    -0.12000
C3228       C  0.93685263  0.97176176  0.11189219     0.23400
C3229       C  0.92063087  0.96061100  0.11250434    -0.12500
C3230       C  0.90473736  0.96587627  0.10227707     0.04800
C3231       C  0.95261418  0.96757253  0.12465565     0.27200
C3232       C  0.96824298  0.95759107  0.11815731    -0.13200
C3233       C  0.98340033  0.95429952  0.13018475     0.05300
C3234       C  0.98276730  0.96044810  0.14889961    -0.09200
C3235       C  0.96671492  0.96953289  0.15566564     0.06100
C3236       C  0.95179233  0.97340759  0.14347282    -0.13600
Br3237     Br  0.92029575  0.93817289  0.12750407    -0.05600
Br3238     Br  0.92272152  0.01413168  0.07326523     0.00000
Br3239     Br  0.00511769  0.94140059  0.12097551     0.00400
Br3240     Br  0.93040773  0.98721601  0.15231686    -0.04000
Br3241     Br  0.88212164  0.95127196  0.10432876     0.00500
Br3242     Br  0.96001774  0.00247000  0.09876906    -0.03300
Br3243     Br  0.96887195  0.94855746  0.09275746    -0.04100
Br3244     Br  0.96534738  0.97694534  0.18149026    -0.00200
C3245       C  0.95321044  0.19810954  0.09111831     0.01300
C3246       C  0.96310809  0.21362452  0.09818779     0.04100
C3247       C  0.96032138  0.21937659  0.11679798    -0.12000
C3248       C  0.94855187  0.20890013  0.12865981     0.23400
C3249       C  0.94004740  0.19239562  0.12201401    -0.12500
C3250       C  0.94229856  0.18707347  0.10323882     0.04800
C3251       C  0.94414988  0.21554938  0.14780224     0.27200
C3252       C  0.95584377  0.21105625  0.16293025    -0.13200
C3253       C  0.95039217  0.21559097  0.18130300     0.05300
C3254       C  0.93259887  0.22354673  0.18473625    -0.09200
C3255       C  0.92122842  0.22864931  0.16933822     0.06100
C3256       C  0.92734857  0.22519151  0.15097363    -0.13600
Br3257     Br  0.92501526  0.17730505  0.13863452    -0.05600
Br3258     Br  0.98095892  0.22653514  0.08262527     0.00000
Br3259     Br  0.96785084  0.21164073  0.20148665     0.00400
Br3260     Br  0.91257247  0.23327904  0.12989726    -0.04000
Br3261     Br  0.93108459  0.16427376  0.09425391     0.00500
Br3262     Br  0.97195338  0.24195477  0.12585548    -0.03300
Br3263     Br  0.97908548  0.19819991  0.15841087    -0.04100
Br3264     Br  0.89651391  0.23892571  0.17284648    -0.00200
C3265       C  0.95805027  0.17063842  0.97973451     0.01300
C3266       C  0.94779907  0.15483650  0.97394964     0.04100
C3267       C  0.95162102  0.14658571  0.95653109    -0.12000
C3268       C  0.96618237  0.15370521  0.94528473     0.23400
C3269       C  0.97584133  0.16996849  0.95072973    -0.12500
C3270       C  0.97119587  0.17881561  0.96759837     0.04800
C3271       C  0.97148618  0.14387174  0.92791184     0.27200
C3272       C  0.98279884  0.12782967  0.92886212    -0.13200
C3273       C  0.98693135  0.11775178  0.91253770     0.05300
C3274       C  0.97980632  0.12377913  0.89514836    -0.09200
C3275       C  0.96925274  0.14046034  0.89413259     0.06100
C3276       C  0.96499004  0.15036471  0.91054535    -0.13600
Br3277     Br  0.99605716  0.17952741  0.93558575    -0.05600
Br3278     Br  0.92897026  0.14417800  0.99008246     0.00000
Br3279     Br  0.00311590  0.09620165  0.91407167     0.00400
Br3280     Br  0.94988745  0.17267663  0.90941954    -0.04000
Br3281     Br  0.98202629  0.20261642  0.97368885     0.00500
Br3282     Br  0.93738922  0.12519922  0.94822742    -0.03300
Br3283     Br  0.99265162  0.11974566  0.95263385    -0.04100
Br3284     Br  0.95979296  0.14959201  0.87055033    -0.00200
C3285       C  0.87548357  0.05213605  0.06006181     0.01300
C3286       C  0.87326007  0.06132071  0.04272556     0.04100
C3287       C  0.88288684  0.07806394  0.03912045    -0.12000
C3288       C  0.89430423  0.08597197  0.05301713     0.23400
C3289       C  0.89554235  0.07753163  0.07076294    -0.12500
C3290       C  0.88613313  0.06061141  0.07433183     0.04800
C3291       C  0.90487587  0.10333798  0.04911767     0.27200
C3292       C  0.92317937  0.10239208  0.04204774    -0.13200
C3293       C  0.93358408  0.11887951  0.03916626     0.05300
C3294       C  0.92577296  0.13652752  0.04378876    -0.09200
C3295       C  0.90705281  0.13726283  0.05053731     0.06100
C3296       C  0.89666812  0.12071650  0.05286398    -0.13600
Br3297     Br  0.91066216  0.08899049  0.08993148    -0.05600
Br3298     Br  0.85644346  0.05133396  0.02409619     0.00000
Br3299     Br  0.95800589  0.11675620  0.02775025     0.00400
Br3300     Br  0.87091266  0.12162852  0.06102967    -0.04000
Br3301     Br  0.88871530  0.04877962  0.09844023     0.00500
Br3302     Br  0.88084649  0.08999874  0.01501569    -0.03300
Br3303     Br  0.93373181  0.07829838  0.03599603    -0.04100
Br3304     Br  0.89515059  0.16051482  0.05749261    -0.00200
C3305       C  0.68747699  0.84639637  0.94351428     0.01300
C3306       C  0.68716548  0.84974870  0.96295815     0.04100
C3307       C  0.68527146  0.86816550  0.96971873    -0.12000
C3308       C  0.68329788  0.88315941  0.95707459     0.23400
C3309       C  0.68303196  0.87970534  0.93771063    -0.12500
C3310       C  0.68508977  0.86141502  0.93098004     0.04800
C3311       C  0.68106529  0.90262864  0.96382761     0.27200
C3312       C  0.66335238  0.90898233  0.96955442    -0.13200
C3313       C  0.66046729  0.92809282  0.97310485     0.05300
C3314       C  0.67536947  0.94095152  0.97104401    -0.09200
C3315       C  0.69326912  0.93444972  0.96589548     0.06100
C3316       C  0.69611762  0.91530228  0.96244458    -0.13600
Br3317     Br  0.67971711  0.90012825  0.92032488    -0.05600
Br3318     Br  0.68980090  0.82928021  0.98033240     0.00000
Br3319     Br  0.63556443  0.93668512  0.97901961     0.00400
Br3320     Br  0.72050472  0.90637217  0.95516645    -0.04000
Br3321     Br  0.68344065  0.85692696  0.90451262     0.00500
Br3322     Br  0.68564924  0.87300410  0.99622934    -0.03300
Br3323     Br  0.64279408  0.89155634  0.97163604    -0.04100
Br3324     Br  0.71396263  0.95166984  0.96346856    -0.00200
C3325       C  0.71396897  0.00575791  0.00176010     0.01300
C3326       C  0.72450518  0.02224565  0.99902913     0.04100
C3327       C  0.74231720  0.02402835  0.00715772    -0.12000
C3328       C  0.74973449  0.00927663  0.01783052     0.23400
C3329       C  0.73914207  0.99292237  0.02081319    -0.12500
C3330       C  0.72132201  0.99111448  0.01274807     0.04800
C3331       C  0.76915441  0.01036219  0.02494831     0.27200
C3332       C  0.78382839  0.00319804  0.01408986    -0.13200
C3333       C  0.80207242  0.00230813  0.02137586     0.05300
C3334       C  0.80597465  0.00945286  0.03956919    -0.09200
C3335       C  0.79112995  0.01788979  0.04984701     0.06100
C3336       C  0.77279953  0.01784471  0.04269170    -0.13600
Br3337     Br  0.74937854  0.97281831  0.03560581    -0.05600
Br3338     Br  0.71453862  0.04249838  0.98431839     0.00000
Br3339     Br  0.82076042  0.98998418  0.00619444     0.00400
Br3340     Br  0.75231068  0.02761385  0.05732285    -0.04000
Br3341     Br  0.70770691  0.96793251  0.01562674     0.00500
Br3342     Br  0.75679987  0.04652499  0.00353550    -0.03300
Br3343     Br  0.77852479  0.99408830  0.98919817    -0.04100
Br3344     Br  0.79516518  0.03012825  0.07363601    -0.00200
C3345       C  0.56517981  0.19131372  0.94090878     0.01300
C3346       C  0.56113218  0.17621587  0.92875349     0.04100
C3347       C  0.56281644  0.17850239  0.90930708    -0.12000
C3348       C  0.56944126  0.19550135  0.90192194     0.23400
C3349       C  0.57361870  0.21052081  0.91395158    -0.12500
C3350       C  0.57118061  0.20857559  0.93337254     0.04800
C3351       C  0.57325877  0.19722822  0.88162927     0.27200
C3352       C  0.59168113  0.19507170  0.87503740    -0.13200
C3353       C  0.59576366  0.19802577  0.85605893     0.05300
C3354       C  0.58119521  0.20177068  0.84334853    -0.09200
C3355       C  0.56266906  0.20344480  0.84984510     0.06100
C3356       C  0.55874657  0.20147334  0.86903414    -0.13600
Br3357     Br  0.58297635  0.23369857  0.90369295    -0.05600
Br3358     Br  0.55478073  0.15178030  0.93850372     0.00000
Br3359     Br  0.62137998  0.19697994  0.84761239     0.00400
Br3360     Br  0.53356732  0.20460079  0.87814279    -0.04000
Br3361     Br  0.57543163  0.22987457  0.94939395     0.00500
Br3362     Br  0.55639363  0.15822266  0.89269063    -0.03300
Br3363     Br  0.61121100  0.18753260  0.89202928    -0.04100
Br3364     Br  0.54286540  0.20942083  0.83258365    -0.00200
C3365       C  0.64487000  0.05108514  0.97764389     0.01300
C3366       C  0.64900836  0.06400663  0.99189531     0.04100
C3367       C  0.63843532  0.08049087  0.99358564    -0.12000
C3368       C  0.62350857  0.08389798  0.98121867     0.23400
C3369       C  0.61984509  0.07134791  0.96653052    -0.12500
C3370       C  0.63079922  0.05520102  0.96445954     0.04800
C3371       C  0.61171970  0.10074516  0.98357001     0.27200
C3372       C  0.59635897  0.10038699  0.99591243    -0.13200
C3373       C  0.58564306  0.11662306  0.99873196     0.05300
C3374       C  0.58977256  0.13303258  0.98854136    -0.09200
C3375       C  0.60470605  0.13308838  0.97560375     0.06100
C3376       C  0.61584800  0.11708193  0.97339302    -0.13600
Br3377     Br  0.59927749  0.07596319  0.94973542    -0.05600
Br3378     Br  0.66958929  0.05938073  0.00860484     0.00000
Br3379     Br  0.56617732  0.11661910  0.01745181     0.00400
Br3380     Br  0.63687231  0.11743388  0.95646516    -0.04000
Br3381     Br  0.62606540  0.03856809  0.94376169     0.00500
Br3382     Br  0.64412255  0.09833031  0.01296914    -0.03300
Br3383     Br  0.58999847  0.07753018  0.00880278    -0.04100
Br3384     Br  0.60948805  0.15480113  0.96023880    -0.00200
C3385       C  0.58531180  0.07046962  0.18832423     0.01300
C3386       C  0.59095958  0.07105930  0.20719869     0.04100
C3387       C  0.60977640  0.07470769  0.21172738    -0.12000
C3388       C  0.62295726  0.07788422  0.19741071     0.23400
C3389       C  0.61740273  0.07687469  0.17856005    -0.12500
C3390       C  0.59864818  0.07314836  0.17400335     0.04800
C3391       C  0.64237439  0.08365133  0.20197773     0.27200
C3392       C  0.64675480  0.10280506  0.20331185    -0.13200
C3393       C  0.66539396  0.10856605  0.20577811     0.05300
C3394       C  0.67981825  0.09515487  0.20688958    -0.09200
C3395       C  0.67532986  0.07592890  0.20615693     0.06100
C3396       C  0.65662276  0.07020869  0.20370376    -0.13600
Br3397     Br  0.63544029  0.08157676  0.15900390    -0.05600
Br3398     Br  0.57290402  0.06680051  0.22682992     0.00000
Br3399     Br  0.67112909  0.13496961  0.20642789     0.00400
Br3400     Br  0.65039145  0.04399586  0.20240824    -0.04000
Br3401     Br  0.59106545  0.07328768  0.14810780     0.00500
Br3402     Br  0.61747337  0.07598015  0.23750461    -0.03300
Br3403     Br  0.62714363  0.12116639  0.20109322    -0.04100
Br3404     Br  0.69465972  0.05739723  0.20911277    -0.00200
C3405       C  0.55885602  0.16441187  0.05203703     0.01300
C3406       C  0.57421704  0.15339078  0.05778332     0.04100
C3407       C  0.57257721  0.14167756  0.07352012    -0.12000
C3408       C  0.55579584  0.14122698  0.08378914     0.23400
C3409       C  0.54088473  0.15301456  0.07876468    -0.12500
C3410       C  0.54238184  0.16454791  0.06290849     0.04800
C3411       C  0.55319490  0.12746341  0.09907088     0.27200
C3412       C  0.54325953  0.11081841  0.09556380    -0.13200
C3413       C  0.53877179  0.09866946  0.11035698     0.05300
C3414       C  0.54494137  0.10276382  0.12868045    -0.09200
C3415       C  0.55605482  0.11882008  0.13188503     0.06100
C3416       C  0.55987293  0.13129830  0.11715533    -0.13600
Br3417     Br  0.51798372  0.15245465  0.09308285    -0.05600
Br3418     Br  0.59698528  0.15275762  0.04325623     0.00000
Br3419     Br  0.52311841  0.07717008  0.10537995     0.00400
Br3420     Br  0.57414821  0.15375333  0.12168968    -0.04000
Br3421     Br  0.52169731  0.18034367  0.05594703     0.00500
Br3422     Br  0.59274954  0.12511049  0.08024480    -0.03300
Br3423     Br  0.53572012  0.10480613  0.07035691    -0.04100
Br3424     Br  0.56692108  0.12340237  0.15617383    -0.00200
C3425       C  0.33425284  0.95207426  0.82702889     0.01300
C3426       C  0.33863955  0.97133101  0.82730084     0.04100
C3427       C  0.35721466  0.97718577  0.83008556    -0.12000
C3428       C  0.37129729  0.96386795  0.83325742     0.23400
C3429       C  0.36703254  0.94465438  0.83262991    -0.12500
C3430       C  0.34861125  0.93873756  0.82917762     0.04800
C3431       C  0.39036549  0.96995007  0.83851339     0.27200
C3432       C  0.40436767  0.97194578  0.82479660    -0.13200
C3433       C  0.42281261  0.97617737  0.83012938     0.05300
C3434       C  0.42729138  0.97814506  0.84920979    -0.09200
C3435       C  0.41315250  0.97659919  0.86289325     0.06100
C3436       C  0.39469006  0.97266032  0.85751283    -0.13600
Br3437     Br  0.38645287  0.92650236  0.83711384    -0.05600
Br3438     Br  0.31936846  0.98974680  0.82338535     0.00000
Br3439     Br  0.44189947  0.97957691  0.81131779     0.00400
Br3440     Br  0.37534243  0.97020425  0.87620252    -0.04000
Br3441     Br  0.34306382  0.91231479  0.82825614     0.00500
Br3442     Br  0.36353032  0.00341514  0.82960505    -0.03300
Br3443     Br  0.39829009  0.96834237  0.79880599    -0.04100
Br3444     Br  0.41922110  0.97833710  0.88913834    -0.00200
C3445       C  0.53346768  0.98287269  0.89098594     0.01300
C3446       C  0.54798319  0.99556510  0.88694926     0.04100
C3447       C  0.56395037  0.99611571  0.89842153    -0.12000
C3448       C  0.56502885  0.98443803  0.91426922     0.23400
C3449       C  0.55060076  0.97162736  0.91813906    -0.12500
C3450       C  0.53521349  0.97034635  0.90609560     0.04800
C3451       C  0.58158853  0.98513060  0.92658987     0.27200
C3452       C  0.59701263  0.97359425  0.92275942    -0.13200
C3453       C  0.61300445  0.97458016  0.93406277     0.05300
C3454       C  0.61347258  0.98686867  0.94947877    -0.09200
C3455       C  0.59743292  0.99738395  0.95413549     0.06100
C3456       C  0.58170655  0.99688838  0.94236357    -0.13600
Br3457     Br  0.55163564  0.95631910  0.94034476    -0.05600
Br3458     Br  0.54616752  0.01165470  0.86541974     0.00000
Br3459     Br  0.63402928  0.95853465  0.92877465     0.00400
Br3460     Br  0.56051214  0.01276904  0.94735287    -0.04000
Br3461     Br  0.51670200  0.95118645  0.91025951     0.00500
Br3462     Br  0.58428161  0.01292191  0.89268679    -0.03300
Br3463     Br  0.59621178  0.95662128  0.90182062    -0.04100
Br3464     Br  0.59698926  0.01294601  0.97619162    -0.00200
C3465       C  0.32028344  0.19716102  0.08481316     0.01300
C3466       C  0.31939828  0.18392544  0.09943101     0.04100
C3467       C  0.32106629  0.16479762  0.09546970    -0.12000
C3468       C  0.32382967  0.15883139  0.07694755     0.23400
C3469       C  0.32450381  0.17196393  0.06228261    -0.12500
C3470       C  0.32271800  0.19115539  0.06619405     0.04800
C3471       C  0.32769498  0.13889248  0.07324016     0.27200
C3472       C  0.34632434  0.13265047  0.07321848    -0.13200
C3473       C  0.35025108  0.11368906  0.07025679     0.05300
C3474       C  0.33548280  0.10073495  0.06834864    -0.09200
C3475       C  0.31679103  0.10691326  0.06870620     0.06100
C3476       C  0.31292444  0.12608993  0.07069692    -0.13600
Br3477     Br  0.32807732  0.16351608  0.03692899    -0.05600
Br3478     Br  0.31714702  0.19197004  0.12511626     0.00000
Br3479     Br  0.37594643  0.10546374  0.06958462     0.00400
Br3480     Br  0.28750024  0.13493328  0.06999931    -0.04000
Br3481     Br  0.32307909  0.20907148  0.04601385     0.00500
Br3482     Br  0.32015666  0.14668444  0.11547163    -0.03300
Br3483     Br  0.36641829  0.15005439  0.07804861    -0.04100
Br3484     Br  0.29655706  0.08921254  0.06610487    -0.00200
C3485       C  0.30296968  0.03743048  0.03151186     0.01300
C3486       C  0.28979248  0.02320082  0.03553033     0.04100
C3487       C  0.27225865  0.02313703  0.02662295    -0.12000
C3488       C  0.26808125  0.03669419  0.01299612     0.23400
C3489       C  0.28145676  0.05040612  0.00833713    -0.12500
C3490       C  0.29864837  0.05110544  0.01786744     0.04800
C3491       C  0.24942377  0.03681382  0.00387194     0.27200
C3492       C  0.24580315  0.02495694  0.98864475    -0.13200
C3493       C  0.22813730  0.02503739  0.97996801     0.05300
C3494       C  0.21410880  0.03775892  0.98588748    -0.09200
C3495       C  0.21788175  0.04957099  0.00143130     0.06100
C3496       C  0.23535490  0.04881398  0.01048263    -0.13600
Br3497     Br  0.27593589  0.06850278  0.98909542    -0.05600
Br3498     Br  0.29577804  0.00335898  0.05281762     0.00000
Br3499     Br  0.22334233  0.00687740  0.96055776     0.00400
Br3500     Br  0.24037134  0.06451276  0.03189492    -0.04000
Br3501     Br  0.31529758  0.07193394  0.01322860     0.00500
Br3502     Br  0.25359902  0.00482763  0.03344610    -0.03300
Br3503     Br  0.26542364  0.00887760  0.97947221    -0.04100
Br3504     Br  0.19999174  0.06784105  0.01011776    -0.00200
C3505       C  0.39580809  0.05762361  0.09649722     0.01300
C3506       C  0.41382482  0.05127832  0.09144193     0.04100
C3507       C  0.42914992  0.05479310  0.10322458    -0.12000
C3508       C  0.42659488  0.06445213  0.12016864     0.23400
C3509       C  0.40878127  0.07102689  0.12516675    -0.12500
C3510       C  0.39340720  0.06770538  0.11336701     0.04800
C3511       C  0.44273659  0.06727684  0.13280697     0.27200
C3512       C  0.44681052  0.05381124  0.14659200    -0.13200
C3513       C  0.46358545  0.05501046  0.15673508     0.05300
C3514       C  0.47626089  0.06963804  0.15305935    -0.09200
C3515       C  0.47146851  0.08393847  0.14040562     0.06100
C3516       C  0.45475903  0.08268149  0.13016923    -0.13600
Br3517     Br  0.40560214  0.08456703  0.14827351    -0.05600
Br3518     Br  0.41762479  0.03670480  0.06903282     0.00000
Br3519     Br  0.46923145  0.03679937  0.17579373     0.00400
Br3520     Br  0.44871688  0.10150334  0.11185218    -0.04000
Br3521     Br  0.36929556  0.07772223  0.12021902     0.00500
Br3522     Br  0.45377871  0.04614383  0.09637676    -0.03300
Br3523     Br  0.42972683  0.03336491  0.15097045    -0.04100
Br3524     Br  0.48823437  0.10474417  0.13640960    -0.00200
C3525       C  0.45643567  0.84702658  0.09674021     0.01300
C3526       C  0.46024066  0.85966014  0.11147475     0.04100
C3527       C  0.45774009  0.85395690  0.13005021    -0.12000
C3528       C  0.45067011  0.83602593  0.13392891     0.23400
C3529       C  0.44756833  0.82315532  0.11942945    -0.12500
C3530       C  0.45074602  0.82852360  0.10082558     0.04800
C3531       C  0.44432295  0.83177695  0.15301370     0.27200
C3532       C  0.45720154  0.82616757  0.16674555    -0.13200
C3533       C  0.45138837  0.82452412  0.18541718     0.05300
C3534       C  0.43259469  0.82794555  0.19010794    -0.09200
C3535       C  0.41963472  0.83313049  0.17627676     0.06100
C3536       C  0.42551158  0.83508753  0.15771884    -0.13600
Br3537     Br  0.43826834  0.79845424  0.12516602    -0.05600
Br3538     Br  0.46712261  0.88537892  0.10664199     0.00000
Br3539     Br  0.46905649  0.81746175  0.20447218     0.00400
Br3540     Br  0.40785029  0.84250982  0.13871723    -0.04000
Br3541     Br  0.44761091  0.81028029  0.08116304     0.00500
Br3542     Br  0.46314910  0.87097286  0.15033611    -0.03300
Br3543     Br  0.48266568  0.82071598  0.15983022    -0.04100
Br3544     Br  0.39397226  0.83831786  0.18286075    -0.00200
C3545       C  0.46098177  0.88857488  0.99040188     0.01300
C3546       C  0.44481030  0.89882217  0.98554709     0.04100
C3547       C  0.44499807  0.91055198  0.96977484    -0.12000
C3548       C  0.46140282  0.91241475  0.95907686     0.23400
C3549       C  0.47740316  0.90195466  0.96364768    -0.12500
C3550       C  0.47717386  0.88997139  0.97922758     0.04800
C3551       C  0.46213327  0.92590807  0.94340508     0.27200
C3552       C  0.45699257  0.92023768  0.92533703    -0.13200
C3553       C  0.45854417  0.93279124  0.91030293     0.05300
C3554       C  0.46647187  0.95073527  0.91306420    -0.09200
C3555       C  0.47095573  0.95662281  0.93144298     0.06100
C3556       C  0.46848272  0.94426724  0.94656565    -0.13600
Br3557     Br  0.49977589  0.90453082  0.94876208    -0.05600
Br3558     Br  0.42286829  0.89835244  0.00131796     0.00000
Br3559     Br  0.44883531  0.92548803  0.88618483     0.00400
Br3560     Br  0.47440592  0.95213764  0.97169898    -0.04000
Br3561     Br  0.49903055  0.87540198  0.98519338     0.00500
Br3562     Br  0.42303015  0.92466983  0.96310188    -0.03300
Br3563     Br  0.44851383  0.89494919  0.92117661    -0.04100
Br3564     Br  0.48177174  0.98094750  0.93624393    -0.00200
C3565       C  0.42761993  0.91120218  0.05443012     0.01300
C3566       C  0.41016104  0.90935313  0.06360467     0.04100
C3567       C  0.39803424  0.92476336  0.06489639    -0.12000
C3568       C  0.40361784  0.94228047  0.05787434     0.23400
C3569       C  0.42121972  0.94434360  0.04927759    -0.12500
C3570       C  0.43301398  0.92879167  0.04713862     0.04800
C3571       C  0.39107485  0.95867098  0.05946560     0.27200
C3572       C  0.38034381  0.96436238  0.04398984    -0.13200
C3573       C  0.37013903  0.98113510  0.04475126     0.05300
C3574       C  0.37045375  0.99213825  0.06110319    -0.09200
C3575       C  0.38072664  0.98607078  0.07681620     0.06100
C3576       C  0.39091301  0.96930591  0.07601043    -0.13600
Br3577     Br  0.42897176  0.96856871  0.04012884    -0.05600
Br3578     Br  0.40291963  0.88595923  0.07506260     0.00000
Br3579     Br  0.35588462  0.98910853  0.02331417     0.00400
Br3580     Br  0.40535558  0.96122934  0.09729208    -0.04000
Br3581     Br  0.45572791  0.93153533  0.03274053     0.00500
Br3582     Br  0.37351919  0.92191111  0.07585273    -0.03300
Br3583     Br  0.38009841  0.94931648  0.02161273    -0.04100
Br3584     Br  0.38250104  0.00154747  0.09886281    -0.00200
C3585       C  0.70158805  0.08639800  0.59054891     0.01300
C3586       C  0.71122625  0.09518373  0.57572308     0.04100
C3587       C  0.71624766  0.11413331  0.57708306    -0.12000
C3588       C  0.71210205  0.12415225  0.59348913     0.23400
C3589       C  0.70455590  0.11476650  0.60911630    -0.12500
C3590       C  0.69909047  0.09591630  0.60760528     0.04800
C3591       C  0.71312867  0.14485085  0.59352209     0.27200
C3592       C  0.72996786  0.15414387  0.59742785    -0.13200
C3593       C  0.73031378  0.17377706  0.59876840     0.05300
C3594       C  0.71348994  0.18421174  0.59722991    -0.09200
C3595       C  0.69702537  0.17482212  0.59124542     0.06100
C3596       C  0.69690078  0.15520976  0.58963881    -0.13600
Br3597     Br  0.70048746  0.12826461  0.63209702    -0.05600
Br3598     Br  0.71707692  0.08130458  0.55333347     0.00000
Br3599     Br  0.75430572  0.18606036  0.60116340     0.00400
Br3600     Br  0.67425549  0.14220435  0.58255216    -0.04000
Br3601     Br  0.68643996  0.08388428  0.62819980     0.00500
Br3602     Br  0.72750774  0.12673228  0.55603126    -0.03300
Br3603     Br  0.75243834  0.13979611  0.60136479    -0.04100
Br3604     Br  0.67439765  0.18806266  0.58482527    -0.00200
C3605       C  0.71816858  0.02487203  0.54678731     0.01300
C3606       C  0.71724262  0.02032233  0.52760350     0.04100
C3607       C  0.73362446  0.02025372  0.51667892    -0.12000
C3608       C  0.75102047  0.02427671  0.52493206     0.23400
C3609       C  0.75218868  0.02750747  0.54426991    -0.12500
C3610       C  0.73584525  0.02804063  0.55518603     0.04800
C3611       C  0.76773704  0.02735009  0.51305342     0.27200
C3612       C  0.78001958  0.01255863  0.50889382    -0.13200
C3613       C  0.79604253  0.01590746  0.49790282     0.05300
C3614       C  0.80004433  0.03412707  0.49153869    -0.09200
C3615       C  0.78759989  0.04882736  0.49551893     0.06100
C3616       C  0.77148493  0.04545295  0.50623962    -0.13600
Br3617     Br  0.77626138  0.03230492  0.55551689    -0.05600
Br3618     Br  0.69363345  0.01396417  0.51621658     0.00000
Br3619     Br  0.81231856  0.99557194  0.49128142     0.00400
Br3620     Br  0.75453150  0.06567429  0.51182057    -0.04000
Br3621     Br  0.73802506  0.03502744  0.58121361     0.00500
Br3622     Br  0.73226790  0.01557238  0.49017849    -0.03300
Br3623     Br  0.77498082  0.98789518  0.51856700    -0.04100
Br3624     Br  0.79236913  0.07356144  0.48591700    -0.00200
C3625       C  0.33731678  0.10062368  0.70424837     0.01300
C3626       C  0.34928685  0.11607709  0.70147272     0.04100
C3627       C  0.36854245  0.11329034  0.69923948    -0.12000
C3628       C  0.37591592  0.09509439  0.69990648     0.23400
C3629       C  0.36404214  0.07964227  0.70299405    -0.12500
C3630       C  0.34469499  0.08240810  0.70515787     0.04800
C3631       C  0.39611987  0.09238355  0.69665811     0.27200
C3632       C  0.40288939  0.09114607  0.67823403    -0.13200
C3633       C  0.42219017  0.08998956  0.67495205     0.05300
C3634       C  0.43478419  0.08994896  0.69013584    -0.09200
C3635       C  0.42797573  0.09103569  0.70858933     0.06100
C3636       C  0.40862280  0.09225138  0.71183615    -0.13600
Br3637     Br  0.37432840  0.05477185  0.70393724    -0.05600
Br3638     Br  0.33930694  0.14108328  0.69973459     0.00000
Br3639     Br  0.43129567  0.08885535  0.64953483     0.00400
Br3640     Br  0.39906963  0.09343605  0.73702072    -0.04000
Br3641     Br  0.32836297  0.06141151  0.70988199     0.00500
Br3642     Br  0.38486797  0.13435408  0.69468151    -0.03300
Br3643     Br  0.38559392  0.09096164  0.65752898    -0.04100
Br3644     Br  0.44502447  0.08977854  0.72940761    -0.00200
C3645       C  0.49343252  0.01359316  0.82038086     0.01300
C3646       C  0.50824069  0.00899218  0.80812492     0.04100
C3647       C  0.50930344  0.01729985  0.79033241    -0.12000
C3648       C  0.49603744  0.03075544  0.78496829     0.23400
C3649       C  0.48212346  0.03644250  0.79763979    -0.12500
C3650       C  0.48052009  0.02763778  0.81515016     0.04800
C3651       C  0.49618905  0.03836010  0.76570213     0.27200
C3652       C  0.50860234  0.05281166  0.76086227    -0.13200
C3653       C  0.50881836  0.05992115  0.74253604     0.05300
C3654       C  0.49578585  0.05330352  0.72910641    -0.09200
C3655       C  0.48339576  0.03859465  0.73410491     0.06100
C3656       C  0.48381142  0.03107163  0.75227718    -0.13600
Br3657     Br  0.46498227  0.05606192  0.79064974    -0.05600
Br3658     Br  0.52747445  0.99171695  0.81574298     0.00000
Br3659     Br  0.52787558  0.07800218  0.73605652     0.00400
Br3660     Br  0.46703066  0.01096758  0.75910465    -0.04000
Br3661     Br  0.45953472  0.03394420  0.83095868     0.00500
Br3662     Br  0.52863561  0.00994026  0.77300238    -0.03300
Br3663     Br  0.52496781  0.06316890  0.77967658    -0.04100
Br3664     Br  0.46497255  0.02900871  0.71680597    -0.00200
C3665       C  0.54400118  0.06913824  0.66145116     0.01300
C3666       C  0.56015326  0.07641423  0.67038002     0.04100
C3667       C  0.57793390  0.07389415  0.66226976    -0.12000
C3668       C  0.57966322  0.06452567  0.64510779     0.23400
C3669       C  0.56391365  0.05659542  0.63654931    -0.12500
C3670       C  0.54626646  0.05822186  0.64491489     0.04800
C3671       C  0.59807732  0.06200872  0.63610292     0.27200
C3672       C  0.60469152  0.07542947  0.62330777    -0.13200
C3673       C  0.62043867  0.07153857  0.61217806     0.05300
C3674       C  0.62923402  0.05388070  0.61342570    -0.09200
C3675       C  0.62263882  0.04057895  0.62658615     0.06100
C3676       C  0.60738442  0.04486274  0.63814618    -0.13600
Br3677     Br  0.56673324  0.04337319  0.61307066    -0.05600
Br3678     Br  0.55858580  0.08849545  0.69444361     0.00000
Br3679     Br  0.62987364  0.09064975  0.59555109     0.00400
Br3680     Br  0.59825968  0.02675629  0.65605087    -0.04000
Br3681     Br  0.52597495  0.04459591  0.63318224     0.00500
Br3682     Br  0.60012910  0.08281273  0.67472550    -0.03300
Br3683     Br  0.59143369  0.09873474  0.62045360    -0.04100
Br3684     Br  0.63291657  0.01561456  0.62775447    -0.00200
C3685       C  0.33559865  0.93289986  0.46166471     0.01300
C3686       C  0.31688400  0.92679186  0.46086322     0.04100
C3687       C  0.31294706  0.90783155  0.45742243    -0.12000
C3688       C  0.32772016  0.89507835  0.45504161     0.23400
C3689       C  0.34637677  0.90110901  0.45625720    -0.12500
C3690       C  0.35033234  0.92004302  0.45920652     0.04800
C3691       C  0.32384324  0.87540440  0.45039607     0.27200
C3692       C  0.32106558  0.86223626  0.46475992    -0.13200
C3693       C  0.31838602  0.84332525  0.46027218     0.05300
C3694       C  0.31893302  0.83760744  0.44144432    -0.09200
C3695       C  0.32205144  0.85075436  0.42710331     0.06100
C3696       C  0.32429051  0.86970161  0.43157634    -0.13600
Br3697     Br  0.36650854  0.88332007  0.45379733    -0.05600
Br3698     Br  0.29676136  0.94418361  0.46506032     0.00000
Br3699     Br  0.31367644  0.82535032  0.47986780     0.00400
Br3700     Br  0.32862919  0.88784280  0.41203353    -0.04000
Br3701     Br  0.37603486  0.92837893  0.45865875     0.00500
Br3702     Br  0.28744104  0.89917576  0.45595847    -0.03300
Br3703     Br  0.32162795  0.87009997  0.49053588    -0.04100
Br3704     Br  0.32459393  0.84267096  0.40147328    -0.00200
C3705       C  0.22020536  0.01064875  0.54637927     0.01300
C3706       C  0.22492239  0.99713690  0.53273059     0.04100
C3707       C  0.24226154  0.99808494  0.52352491    -0.12000
C3708       C  0.25556773  0.01164470  0.52875254     0.23400
C3709       C  0.25082185  0.02539284  0.54200589    -0.12500
C3710       C  0.23300577  0.02519605  0.55044801     0.04800
C3711       C  0.27493930  0.01007862  0.52141064     0.27200
C3712       C  0.28650061  0.99560793  0.52804938    -0.13200
C3713       C  0.30306373  0.99103510  0.51846828     0.05300
C3714       C  0.30898436  0.00205454  0.50313338    -0.09200
C3715       C  0.29869163  0.01824407  0.49837103     0.06100
C3716       C  0.28123634  0.02165454  0.50677625    -0.13600
Br3717     Br  0.26898001  0.04407846  0.54903296    -0.05600
Br3718     Br  0.20872184  0.97604594  0.52773722     0.00000
Br3719     Br  0.31640548  0.96873584  0.52561444     0.00400
Br3720     Br  0.26555575  0.04151165  0.49754100    -0.04000
Br3721     Br  0.22610638  0.04521821  0.56715911     0.00500
Br3722     Br  0.24813220  0.98040294  0.50396665    -0.03300
Br3723     Br  0.27910444  0.98166149  0.54998756    -0.04100
Br3724     Br  0.30888888  0.03640431  0.48111716    -0.00200
C3725       C  0.42641869  0.20317569  0.34085015     0.01300
C3726       C  0.41176237  0.20169620  0.35403134     0.04100
C3727       C  0.41563489  0.19656316  0.37256757    -0.12000
C3728       C  0.43414576  0.19300399  0.37807809     0.23400
C3729       C  0.44876269  0.19405927  0.36490403    -0.12500
C3730       C  0.44492419  0.19913386  0.34627763     0.04800
C3731       C  0.43830304  0.18926293  0.39799633     0.27200
C3732       C  0.44215763  0.20433772  0.41006656    -0.13200
C3733       C  0.44582726  0.20100607  0.42905345     0.05300
C3734       C  0.44521481  0.18263856  0.43608792    -0.09200
C3735       C  0.44136972  0.16752473  0.42405006     0.06100
C3736       C  0.43799319  0.17083679  0.40496795    -0.13600
Br3737     Br  0.47403437  0.18881853  0.37262849    -0.05600
Br3738     Br  0.38617265  0.20616888  0.34671678     0.00000
Br3739     Br  0.45240279  0.22149662  0.44533035     0.00400
Br3740     Br  0.43263607  0.15026902  0.38838779    -0.04000
Br3741     Br  0.46514666  0.20159631  0.32858087     0.00500
Br3742     Br  0.39560155  0.19448658  0.39055989    -0.03300
Br3743     Br  0.44209148  0.22958184  0.40056075    -0.04100
Br3744     Br  0.44005702  0.14240152  0.43386174    -0.00200
C3745       C  0.46066110  0.15989411  0.54695128     0.01300
C3746       C  0.47673074  0.16476970  0.55717560     0.04100
C3747       C  0.48091306  0.15525886  0.57382982    -0.12000
C3748       C  0.46890315  0.14100961  0.58027622     0.23400
C3749       C  0.45233192  0.13681728  0.57055189    -0.12500
C3750       C  0.44808507  0.14642826  0.55400144     0.04800
C3751       C  0.47357151  0.13046114  0.59736983     0.27200
C3752       C  0.48526637  0.11471272  0.59631267    -0.13200
C3753       C  0.48943815  0.10453194  0.61257627     0.05300
C3754       C  0.48137770  0.10967726  0.62981527    -0.09200
C3755       C  0.46980686  0.12565777  0.63081625     0.06100
C3756       C  0.46605493  0.13607584  0.61461967    -0.13600
Br3757     Br  0.43600695  0.11719421  0.57943491    -0.05600
Br3758     Br  0.49271398  0.18470313  0.54843174     0.00000
Br3759     Br  0.50737078  0.08458927  0.61135081     0.00400
Br3760     Br  0.45053154  0.15808296  0.61587080    -0.04000
Br3761     Br  0.42551102  0.14040837  0.54052153     0.00500
Br3762     Br  0.50339128  0.16115145  0.58747545    -0.03300
Br3763     Br  0.49549217  0.10714382  0.57250878    -0.04100
Br3764     Br  0.45851504  0.13320981  0.65415937    -0.00200
C3765       C  0.42448432  0.12402942  0.48750177     0.01300
C3766       C  0.40647198  0.12388456  0.47933187     0.04100
C3767       C  0.39691819  0.10690329  0.47698914    -0.12000
C3768       C  0.40544411  0.09005108  0.48225406     0.23400
C3769       C  0.42327953  0.09005661  0.49043895    -0.12500
C3770       C  0.43262131  0.10704428  0.49353679     0.04800
C3771       C  0.39534498  0.07230667  0.47961500     0.27200
C3772       C  0.38410871  0.06525941  0.49415765    -0.13200
C3773       C  0.37450467  0.04833407  0.49175181     0.05300
C3774       C  0.37597644  0.03861762  0.47469059    -0.09200
C3775       C  0.38708493  0.04578481  0.46004901     0.06100
C3776       C  0.39681181  0.06265350  0.46254758    -0.13600
Br3777     Br  0.43485543  0.06666467  0.49726891    -0.05600
Br3778     Br  0.39484690  0.14657489  0.47045266     0.00000
Br3779     Br  0.35913155  0.03861412  0.51175200     0.00400
Br3780     Br  0.41242858  0.07245984  0.44280866    -0.04000
Br3781     Br  0.45589086  0.10681127  0.50726250     0.00500
Br3782     Br  0.37207890  0.10651769  0.46646035    -0.03300
Br3783     Br  0.38196473  0.07888389  0.51733589    -0.04100
Br3784     Br  0.38995647  0.03197843  0.43703636    -0.00200
C3785       C  0.67769538  0.94338584  0.31302266     0.01300
C3786       C  0.67066629  0.96170049  0.31467156     0.04100
C3787       C  0.65133055  0.96455895  0.31679065    -0.12000
C3788       C  0.63906510  0.94912035  0.31699928     0.23400
C3789       C  0.64598470  0.93095262  0.31412335    -0.12500
C3790       C  0.66527801  0.92805108  0.31219369     0.04800
C3791       C  0.61917816  0.95157947  0.32204692     0.27200
C3792       C  0.61371004  0.94928007  0.34081834    -0.13200
C3793       C  0.59479525  0.95065900  0.34577077     0.05300
C3794       C  0.58119285  0.95370665  0.33187247    -0.09200
C3795       C  0.58660426  0.95571387  0.31302745     0.06100
C3796       C  0.60567032  0.95501310  0.30817091    -0.13600
Br3797     Br  0.62896245  0.90996686  0.31372537    -0.05600
Br3798     Br  0.68747438  0.98281940  0.31346573     0.00000
Br3799     Br  0.58751642  0.94777427  0.37162069     0.00400
Br3800     Br  0.61343323  0.95880389  0.28263190    -0.04000
Br3801     Br  0.67463640  0.90286451  0.30968887     0.00500
Br3802     Br  0.64161423  0.98948065  0.31993095    -0.03300
Br3803     Br  0.63218265  0.94378227  0.35969197    -0.04100
Br3804     Br  0.56799004  0.95972193  0.29399037    -0.00200
C3805       C  0.51446594  0.98890822  0.30406739     0.01300
C3806       C  0.52808570  0.00188713  0.29792573     0.04100
C3807       C  0.52646383  0.01011805  0.28020917    -0.12000
C3808       C  0.51129422  0.00548243  0.26858672     0.23400
C3809       C  0.49735381  0.99308738  0.27487888    -0.12500
C3810       C  0.49879055  0.98498612  0.29272292     0.04800
C3811       C  0.51042329  0.01369552  0.24967599     0.27200
C3812       C  0.50038409  0.03026245  0.24671548    -0.13200
C3813       C  0.50248320  0.04010285  0.22984798     0.05300
C3814       C  0.51544308  0.03385276  0.21621511    -0.09200
C3815       C  0.52422636  0.01622940  0.21865639     0.06100
C3816       C  0.52146698  0.00613733  0.23530834    -0.13600
Br3817     Br  0.47671580  0.98678675  0.25873026    -0.05600
Br3818     Br  0.54975097  0.00769819  0.31298687     0.00000
Br3819     Br  0.48694588  0.06173721  0.22551639     0.00400
Br3820     Br  0.53364080  0.98234222  0.23913002    -0.04000
Br3821     Br  0.47892384  0.96905874  0.30180681     0.00500
Br3822     Br  0.54549829  0.02723966  0.27140055    -0.03300
Br3823     Br  0.48449582  0.03988662  0.26629516    -0.04100
Br3824     Br  0.54111747  0.00595802  0.20022950    -0.00200
C3825       C  0.47476405  0.96029771  0.37359214     0.01300
C3826       C  0.46280373  0.97567029  0.37084386     0.04100
C3827       C  0.44679944  0.97776798  0.38209859    -0.12000
C3828       C  0.44294387  0.96466828  0.39633124     0.23400
C3829       C  0.45453625  0.94894813  0.39860738    -0.12500
C3830       C  0.47033863  0.94667412  0.38714575     0.04800
C3831       C  0.42713507  0.96775184  0.40939089     0.27200
C3832       C  0.43033613  0.97648960  0.42672951    -0.13200
C3833       C  0.41539902  0.97957103  0.43915530     0.05300
C3834       C  0.39713587  0.97370618  0.43435821    -0.09200
C3835       C  0.39408108  0.96454296  0.41709233     0.06100
C3836       C  0.40903583  0.96174534  0.40460791    -0.13600
Br3837     Br  0.44913034  0.93096857  0.41799937    -0.05600
Br3838     Br  0.46843685  0.99382537  0.35166948     0.00000
Br3839     Br  0.42006560  0.99281479  0.46222122     0.00400
Br3840     Br  0.40488092  0.94969788  0.38083431    -0.04000
Br3841     Br  0.48656515  0.92548447  0.39085457     0.00500
Br3842     Br  0.43038258  0.99879571  0.37840434    -0.03300
Br3843     Br  0.45529110  0.98442415  0.43329859    -0.04100
Br3844     Br  0.36966751  0.95490767  0.41070621    -0.00200
C3845       C  0.55561818  0.85215983  0.59061175     0.01300
C3846       C  0.54336397  0.86286982  0.60212519     0.04100
C3847       C  0.54404137  0.86103115  0.62169192    -0.12000
C3848       C  0.55733954  0.84932409  0.63000168     0.23400
C3849       C  0.56912401  0.83829242  0.61884481    -0.12500
C3850       C  0.56785759  0.83914143  0.59926516     0.04800
C3851       C  0.55944666  0.84892454  0.65054654     0.27200
C3852       C  0.57000106  0.86292667  0.65953667    -0.13200
C3853       C  0.57398198  0.86135086  0.67868947     0.05300
C3854       C  0.56808330  0.84536797  0.68861341    -0.09200
C3855       C  0.55654225  0.83198231  0.67988243     0.06100
C3856       C  0.55195090  0.83394840  0.66091420    -0.13600
Br3857     Br  0.58747318  0.82234624  0.63060642    -0.05600
Br3858     Br  0.52596704  0.88093615  0.59206612     0.00000
Br3859     Br  0.58824107  0.88065241  0.69102504     0.00400
Br3860     Br  0.53575163  0.81600572  0.64892369    -0.04000
Br3861     Br  0.58248910  0.82146630  0.58494602     0.00500
Br3862     Br  0.52699634  0.87483496  0.63745971    -0.03300
Br3863     Br  0.57974176  0.88377151  0.64536796    -0.04100
Br3864     Br  0.54686982  0.81106537  0.69395788    -0.00200
C3865       C  0.54245729  0.92551602  0.39535468     0.01300
C3866       C  0.55264637  0.90875479  0.39276714     0.04100
C3867       C  0.55720293  0.89753757  0.40825445    -0.12000
C3868       C  0.55165265  0.90298400  0.42628925     0.23400
C3869       C  0.54155449  0.91963597  0.42893191    -0.12500
C3870       C  0.53705522  0.93096604  0.41356481     0.04800
C3871       C  0.55611719  0.89124081  0.44268751     0.27200
C3872       C  0.54327277  0.87755464  0.44866503    -0.13200
C3873       C  0.54540194  0.86921607  0.46630575     0.05300
C3874       C  0.56064370  0.87423173  0.47774499    -0.09200
C3875       C  0.57460271  0.88633599  0.47082387     0.06100
C3876       C  0.57211720  0.89516961  0.45344619    -0.13600
Br3877     Br  0.53348782  0.92663963  0.45373543    -0.05600
Br3878     Br  0.56121587  0.90133028  0.36824406     0.00000
Br3879     Br  0.52721281  0.85122470  0.47502904     0.00400
Br3880     Br  0.58975590  0.91378832  0.44498475    -0.04000
Br3881     Br  0.52265857  0.95343741  0.41772572     0.00500
Br3882     Br  0.57089815  0.87456927  0.40492481    -0.03300
Br3883     Br  0.52218634  0.87118425  0.43311302    -0.04100
Br3884     Br  0.59640193  0.89190870  0.48565383    -0.00200
C3885       C  0.64088858  0.99171680  0.56668385     0.01300
C3886       C  0.62136205  0.99292473  0.56922623     0.04100
C3887       C  0.60996078  0.97718859  0.56599911    -0.12000
C3888       C  0.61788924  0.96049489  0.55921606     0.23400
C3889       C  0.63734153  0.95951904  0.55604538    -0.12500
C3890       C  0.64884165  0.97502066  0.56002380     0.04800
C3891       C  0.60582078  0.94399244  0.55528305     0.27200
C3892       C  0.60534198  0.92885918  0.56791064    -0.13200
C3893       C  0.59506021  0.91264401  0.56353324     0.05300
C3894       C  0.58472128  0.91173092  0.54678318    -0.09200
C3895       C  0.58427841  0.92727962  0.53470603     0.06100
C3896       C  0.59507362  0.94325580  0.53877359    -0.13600
Br3897     Br  0.64816246  0.93700372  0.54595509    -0.05600
Br3898     Br  0.61015376  0.01616211  0.57706404     0.00000
Br3899     Br  0.59475608  0.89182303  0.58073411     0.00400
Br3900     Br  0.59552090  0.96396719  0.52150042    -0.04000
Br3901     Br  0.67538866  0.97379501  0.55546268     0.00500
Br3902     Br  0.58351017  0.97832464  0.57120194    -0.03300
Br3903     Br  0.61870926  0.93047454  0.59126641    -0.04100
Br3904     Br  0.56930370  0.92647096  0.51232381    -0.00200
C3905       C  0.33348525  0.44328052  0.56045494     0.01300
C3906       C  0.31473077  0.43729274  0.56086741     0.04100
C3907       C  0.31055713  0.41833901  0.56408650    -0.12000
C3908       C  0.32517405  0.40541630  0.56650656     0.23400
C3909       C  0.34390363  0.41120696  0.56460511    -0.12500
C3910       C  0.34807754  0.43016922  0.56175890     0.04800
C3911       C  0.32111627  0.38601766  0.57238472     0.27200
C3912       C  0.32064390  0.38163136  0.59158018    -0.13200
C3913       C  0.31882505  0.36293745  0.59734130     0.05300
C3914       C  0.31768809  0.34860647  0.58387266    -0.09200
C3915       C  0.31741597  0.35308186  0.56468387     0.06100
C3916       C  0.31909255  0.37180996  0.55894748    -0.13600
Br3917     Br  0.36383109  0.39317954  0.56658160    -0.05600
Br3918     Br  0.29491586  0.45504778  0.55668294     0.00000
Br3919     Br  0.31899218  0.35694066  0.62366674     0.00400
Br3920     Br  0.31908140  0.37809591  0.53273972    -0.04000
Br3921     Br  0.37382028  0.43830519  0.56092121     0.00500
Br3922     Br  0.28494679  0.41007389  0.56573259    -0.03300
Br3923     Br  0.32324762  0.40125677  0.60992363    -0.04100
Br3924     Br  0.31434758  0.33358493  0.54630098    -0.00200
C3925       C  0.67896436  0.44245159  0.70920894     0.01300
C3926       C  0.67168680  0.44803677  0.69149443     0.04100
C3927       C  0.65225406  0.45008151  0.68899013    -0.12000
C3928       C  0.63988315  0.44647508  0.70381560     0.23400
C3929       C  0.64681378  0.44186224  0.72151011    -0.12500
C3930       C  0.66618377  0.44033375  0.72444484     0.04800
C3931       C  0.61945578  0.44656805  0.70049879     0.27200
C3932       C  0.60914269  0.46315603  0.70253193    -0.13200
C3933       C  0.59009613  0.46345297  0.69771355     0.05300
C3934       C  0.58128575  0.44708784  0.69092464    -0.09200
C3935       C  0.59125990  0.43009447  0.69079334     0.06100
C3936       C  0.61039616  0.42992443  0.69520023    -0.13600
Br3937     Br  0.62935506  0.43686264  0.74158252    -0.05600
Br3938     Br  0.68742316  0.45267011  0.66993654     0.00000
Br3939     Br  0.57592147  0.48616245  0.70116045     0.00400
Br3940     Br  0.62451223  0.40700514  0.69343285    -0.04000
Br3941     Br  0.67422594  0.43580708  0.74986542     0.00500
Br3942     Br  0.64216325  0.45713801  0.66492940    -0.03300
Br3943     Br  0.62127105  0.48544563  0.71169208    -0.04100
Br3944     Br  0.57918717  0.40703130  0.68426217    -0.00200
C3945       C  0.47894281  0.46077956  0.64035003     0.01300
C3946       C  0.47026913  0.47846918  0.64058520     0.04100
C3947       C  0.45443520  0.48179992  0.62948801    -0.12000
C3948       C  0.44711474  0.46745603  0.61815630     0.23400
C3949       C  0.45561312  0.44970425  0.61802361    -0.12500
C3950       C  0.47149475  0.44633785  0.62912756     0.04800
C3951       C  0.43009666  0.47104823  0.60690297     0.27200
C3952       C  0.41251581  0.46556459  0.61382435    -0.13200
C3953       C  0.39617286  0.47020381  0.60399568     0.05300
C3954       C  0.39724269  0.48128607  0.58760248    -0.09200
C3955       C  0.41502891  0.48647980  0.58050774     0.06100
C3956       C  0.43137232  0.48096182  0.58994325    -0.13600
Br3957     Br  0.44564022  0.43018739  0.60228855    -0.05600
Br3958     Br  0.47970170  0.49804770  0.65660480     0.00000
Br3959     Br  0.37253854  0.46042821  0.61283711     0.00400
Br3960     Br  0.45566123  0.48725143  0.57991154    -0.04000
Br3961     Br  0.48356545  0.42224937  0.62808210     0.00500
Br3962     Br  0.44271611  0.50609117  0.62971111    -0.03300
Br3963     Br  0.41089175  0.45207574  0.63716764    -0.04100
Br3964     Br  0.41743250  0.50228884  0.55869662    -0.00200
C3965       C  0.58067735  0.33573058  0.33066505     0.01300
C3966       C  0.59524403  0.33693190  0.34387163     0.04100
C3967       C  0.59103737  0.33969567  0.36281195    -0.12000
C3968       C  0.57231545  0.34157709  0.36852666     0.23400
C3969       C  0.55775199  0.34061610  0.35536663    -0.12500
C3970       C  0.56191626  0.33756629  0.33641209     0.04800
C3971       C  0.56808999  0.34417163  0.38852151     0.27200
C3972       C  0.56672621  0.32845400  0.40029644    -0.13200
C3973       C  0.56455874  0.33089627  0.41962551     0.05300
C3974       C  0.56385152  0.34906957  0.42713713    -0.09200
C3975       C  0.56442184  0.36480024  0.41526530     0.06100
C3976       C  0.56661050  0.36233077  0.39593033    -0.13600
Br3977     Br  0.53216489  0.34310987  0.36350529    -0.05600
Br3978     Br  0.62104325  0.33542131  0.33602267     0.00000
Br3979     Br  0.56203308  0.30937034  0.43573166     0.00400
Br3980     Br  0.56825717  0.38375827  0.37960535    -0.04000
Br3981     Br  0.54190465  0.33478325  0.31857359     0.00500
Br3982     Br  0.61086425  0.34065636  0.38108500    -0.03300
Br3983     Br  0.56833271  0.30363002  0.38989313    -0.04100
Br3984     Br  0.56322586  0.38975066  0.42552589    -0.00200
C3985       C  0.53257289  0.30827058  0.49007485     0.01300
C3986       C  0.53639027  0.29634642  0.50532980     0.04100
C3987       C  0.52654208  0.27945565  0.50726621    -0.12000
C3988       C  0.51305481  0.27443379  0.49389466     0.23400
C3989       C  0.50905015  0.28640194  0.47881791    -0.12500
C3990       C  0.51876617  0.30333882  0.47689812     0.04800
C3991       C  0.50339472  0.25627073  0.49518177     0.27200
C3992       C  0.50960092  0.24131772  0.48412155    -0.13200
C3993       C  0.49909252  0.22477594  0.48324655     0.05300
C3994       C  0.48313256  0.22249057  0.49482500    -0.09200
C3995       C  0.47744697  0.23740244  0.50658637     0.06100
C3996       C  0.48731275  0.25441068  0.50630598    -0.13600
Br3997     Br  0.49036683  0.27933252  0.46066004    -0.05600
Br3998     Br  0.55462502  0.30331761  0.52396969     0.00000
Br3999     Br  0.50588791  0.20642153  0.46458485     0.00400
Br4000     Br  0.47871864  0.27546223  0.52084763    -0.04000
Br4001     Br  0.51372569  0.31915988  0.45560767     0.00500
Br4002     Br  0.53144211  0.26312239  0.52816746    -0.03300
Br4003     Br  0.53246578  0.24378834  0.46989368    -0.04100
Br4004     Br  0.45655115  0.23491809  0.52357452    -0.00200
C4005       C  0.54265234  0.41897500  0.62187996     0.01300
C4006       C  0.53923272  0.42578258  0.60361224     0.04100
C4007       C  0.54407194  0.41493104  0.58799893    -0.12000
C4008       C  0.55187155  0.39708752  0.59049280     0.23400
C4009       C  0.55478236  0.38995621  0.60850244    -0.12500
C4010       C  0.54985623  0.40066905  0.62419092     0.04800
C4011       C  0.55562849  0.38530990  0.57403756     0.27200
C4012       C  0.54122409  0.37403604  0.56680033    -0.13200
C4013       C  0.54369081  0.36501489  0.54960434     0.05300
C4014       C  0.56051760  0.36740320  0.53962384    -0.09200
C4015       C  0.57555055  0.37730525  0.54769506     0.06100
C4016       C  0.57303470  0.38635492  0.56492059    -0.13600
Br4017     Br  0.56551589  0.36536428  0.61144288    -0.05600
Br4018     Br  0.52601583  0.44899440  0.59963745     0.00000
Br4019     Br  0.52387796  0.34968125  0.53949796     0.00400
Br4020     Br  0.59290375  0.40122257  0.57549559    -0.04000
Br4021     Br  0.55264436  0.38952246  0.64848600     0.00500
Br4022     Br  0.53977606  0.42427805  0.56302001    -0.03300
Br4023     Br  0.51773234  0.37195946  0.57994669    -0.04100
Br4024     Br  0.59898135  0.38002494  0.53452016    -0.00200
C4025       C  0.67795277  0.59956498  0.45552662     0.01300
C4026       C  0.69701881  0.60397743  0.45300202     0.04100
C4027       C  0.70236328  0.62244865  0.44890806    -0.12000
C4028       C  0.68863888  0.63633446  0.44681656     0.23400
C4029       C  0.66962738  0.63198603  0.44945610    -0.12500
C4030       C  0.66428786  0.61368880  0.45413462     0.04800
C4031       C  0.69402641  0.65548958  0.44135801     0.27200
C4032       C  0.69649176  0.66927260  0.45516076    -0.13200
C4033       C  0.69962928  0.68791488  0.44987458     0.05300
C4034       C  0.70065672  0.69265880  0.43078005    -0.09200
C4035       C  0.69922805  0.67868291  0.41699053     0.06100
C4036       C  0.69564721  0.66011510  0.42229156    -0.13600
Br4037     Br  0.65087981  0.65104625  0.44596783    -0.05600
Br4038     Br  0.71586383  0.58488849  0.45560371     0.00000
Br4039     Br  0.70277463  0.70691128  0.46878605     0.00400
Br4040     Br  0.69213257  0.64108941  0.40350017    -0.04000
Br4041     Br  0.63810776  0.60794569  0.45766171     0.00500
Br4042     Br  0.72841080  0.62887360  0.44603871    -0.03300
Br4043     Br  0.69519912  0.66256098  0.48125142    -0.04100
Br4044     Br  0.70117848  0.68507595  0.39083867    -0.00200
C4045       C  0.59167401  0.40591308  0.47848758     0.01300
C4046       C  0.58490631  0.42219777  0.48744275     0.04100
C4047       C  0.59477692  0.43912039  0.48582540    -0.12000
C4048       C  0.61154638  0.43982873  0.47557687     0.23400
C4049       C  0.61855404  0.42363074  0.46695857    -0.12500
C4050       C  0.60863686  0.40669553  0.46830801     0.04800
C4051       C  0.62135202  0.45787086  0.47315479     0.27200
C4052       C  0.61809108  0.46858070  0.45697953    -0.13200
C4053       C  0.62695803  0.48596499  0.45476230     0.05300
C4054       C  0.63876472  0.49284814  0.46894404    -0.09200
C4055       C  0.64204047  0.48212619  0.48513902     0.06100
C4056       C  0.63349754  0.46451936  0.48713806    -0.13600
Br4057     Br  0.64161797  0.42490449  0.45295883    -0.05600
Br4058     Br  0.56259217  0.42149286  0.50272490     0.00000
Br4059     Br  0.62213153  0.50071412  0.43268789     0.00400
Br4060     Br  0.63826048  0.44949047  0.50901306    -0.04000
Br4061     Br  0.61802385  0.38502458  0.45522606     0.00500
Br4062     Br  0.58525414  0.46154902  0.49741956    -0.03300
Br4063     Br  0.60100929  0.45957782  0.43813959    -0.04100
Br4064     Br  0.65848794  0.49141203  0.50439225    -0.00200
C4065       C  0.42857663  0.57673710  0.33228590     0.01300
C4066       C  0.42429540  0.58085519  0.31350900     0.04100
C4067       C  0.40561915  0.58363761  0.30818270    -0.12000
C4068       C  0.39124859  0.58173274  0.32150600     0.23400
C4069       C  0.39542475  0.57633663  0.33994797    -0.12500
C4070       C  0.41409676  0.57399337  0.34540761     0.04800
C4071       C  0.37203204  0.58749929  0.31685699     0.27200
C4072       C  0.36657369  0.60603313  0.32050502    -0.13200
C4073       C  0.34809147  0.61154749  0.31724020     0.05300
C4074       C  0.33496877  0.59844760  0.31059581    -0.09200
C4075       C  0.34045461  0.57996464  0.30666532     0.06100
C4076       C  0.35908776  0.57452236  0.30965058    -0.13600
Br4077     Br  0.37551391  0.57319595  0.35793024    -0.05600
Br4078     Br  0.44394378  0.58220463  0.29503276     0.00000
Br4079     Br  0.34065798  0.63693447  0.32250378     0.00400
Br4080     Br  0.36697928  0.54941608  0.30394338    -0.04000
Br4081     Br  0.41976829  0.56843512  0.37120612     0.00500
Br4082     Br  0.39967850  0.59092649  0.28292801    -0.03300
Br4083     Br  0.38443724  0.62376164  0.33033488    -0.04100
Br4084     Br  0.32255214  0.56232958  0.29683027    -0.00200
C4085       C  0.53582130  0.57435973  0.37219229     0.01300
C4086       C  0.54067924  0.58789055  0.38571304     0.04100
C4087       C  0.55730614  0.58595530  0.39599267    -0.12000
C4088       C  0.56880020  0.57026020  0.39317587     0.23400
C4089       C  0.56432066  0.55711139  0.37924712    -0.12500
C4090       C  0.54790627  0.55920537  0.36869204     0.04800
C4091       C  0.58464584  0.56669796  0.40596717     0.27200
C4092       C  0.60259897  0.57353666  0.40171661    -0.13200
C4093       C  0.61756980  0.56996046  0.41390880     0.05300
C4094       C  0.61466333  0.55919780  0.43025503    -0.09200
C4095       C  0.59657188  0.55255248  0.43457994     0.06100
C4096       C  0.58162037  0.55630253  0.42242927    -0.13600
Br4097     Br  0.58033614  0.53581548  0.37527439    -0.05600
Br4098     Br  0.52370484  0.60797356  0.39167785     0.00000
Br4099     Br  0.64183855  0.58061500  0.40851988     0.00400
Br4100     Br  0.55694807  0.54680197  0.42799931    -0.04000
Br4101     Br  0.54184436  0.54114702  0.34958588     0.00500
Br4102     Br  0.56403123  0.60428840  0.41459979    -0.03300
Br4103     Br  0.60661529  0.58754635  0.37900378    -0.04100
Br4104     Br  0.59224615  0.53749142  0.45658822    -0.00200
C4105       C  0.43421714  0.71227485  0.68448156     0.01300
C4106       C  0.42161290  0.70582062  0.67082647     0.04100
C4107       C  0.42759700  0.70341716  0.65231617    -0.12000
C4108       C  0.44638271  0.70689263  0.64747297     0.23400
C4109       C  0.45908360  0.71319668  0.66115159    -0.12500
C4110       C  0.45299567  0.71586557  0.67970065     0.04800
C4111       C  0.45274495  0.70244504  0.62827008     0.27200
C4112       C  0.45583605  0.68364414  0.62338918    -0.13200
C4113       C  0.45835096  0.67865953  0.60457279     0.05300
C4114       C  0.45836644  0.69260245  0.59057245    -0.09200
C4115       C  0.45677257  0.71159615  0.59567039     0.06100
C4116       C  0.45367822  0.71648683  0.61448242    -0.13600
Br4117     Br  0.48468976  0.71823237  0.65437494    -0.05600
Br4118     Br  0.39630193  0.69933325  0.67770102     0.00000
Br4119     Br  0.46012430  0.65250339  0.59808723     0.00400
Br4120     Br  0.44998084  0.74228977  0.62132936    -0.04000
Br4121     Br  0.47023194  0.72455717  0.69849526     0.00500
Br4122     Br  0.41001548  0.69535568  0.63349085    -0.03300
Br4123     Br  0.45567316  0.66462242  0.64256989    -0.04100
Br4124     Br  0.45929216  0.73093842  0.57699725    -0.00200
C4125       C  0.49186281  0.72064123  0.52378488     0.01300
C4126       C  0.50395365  0.72661996  0.53820076     0.04100
C4127       C  0.51239344  0.74435068  0.53721107    -0.12000
C4128       C  0.50883865  0.75612143  0.52185605     0.23400
C4129       C  0.49756071  0.74982318  0.50702665    -0.12500
C4130       C  0.48919552  0.73202964  0.50791398     0.04800
C4131       C  0.51651297  0.77536291  0.52172023     0.27200
C4132       C  0.50678549  0.78976228  0.53085805    -0.13200
C4133       C  0.51472515  0.80772744  0.53223462     0.05300
C4134       C  0.53241531  0.81150805  0.52399006    -0.09200
C4135       C  0.54160269  0.79710502  0.51392755     0.06100
C4136       C  0.53381356  0.77904113  0.51317405    -0.13600
Br4137     Br  0.49307441  0.76593307  0.48588793    -0.05600
Br4138     Br  0.50802438  0.71128089  0.56005491     0.00000
Br4139     Br  0.50146210  0.82636819  0.54661962     0.00400
Br4140     Br  0.54700523  0.75897780  0.50088790    -0.04000
Br4141     Br  0.47441990  0.72306978  0.48721817     0.00500
Br4142     Br  0.52819022  0.75299417  0.55730421    -0.03300
Br4143     Br  0.48272100  0.78449490  0.54203812    -0.04100
Br4144     Br  0.56450762  0.80185330  0.50036127    -0.00200
C4145       C  0.46506650  0.59834378  0.40047920     0.01300
C4146       C  0.47143951  0.59153744  0.41789134     0.04100
C4147       C  0.46753883  0.60155668  0.43438242    -0.12000
C4148       C  0.45798210  0.61873704  0.43348486     0.23400
C4149       C  0.45052780  0.62486598  0.41636105    -0.12500
C4150       C  0.45367934  0.61447695  0.39997869     0.04800
C4151       C  0.45722326  0.63106084  0.45017963     0.27200
C4152       C  0.44089933  0.63216696  0.46115168    -0.13200
C4153       C  0.44052537  0.64368554  0.47712471     0.05300
C4154       C  0.45677485  0.65356409  0.48257933    -0.09200
C4155       C  0.47289798  0.65284388  0.47124586     0.06100
C4156       C  0.47308157  0.64172256  0.45505188    -0.13600
Br4157     Br  0.43658619  0.64790708  0.41526576    -0.05600
Br4158     Br  0.48678232  0.56941642  0.41929145     0.00000
Br4159     Br  0.41795842  0.64506259  0.49189487     0.00400
Br4160     Br  0.49526222  0.64073530  0.43967266    -0.04000
Br4161     Br  0.44186231  0.62218508  0.37696372     0.00500
Br4162     Br  0.47572476  0.59214370  0.45828504    -0.03300
Br4163     Br  0.41940678  0.61714977  0.45472511    -0.04100
Br4164     Br  0.49466524  0.66748922  0.47767703    -0.00200
C4165       C  0.42485178  0.63147611  0.55029270     0.01300
C4166       C  0.42638818  0.61474068  0.54001419     0.04100
C4167       C  0.41406280  0.59989362  0.54362584    -0.12000
C4168       C  0.40062988  0.60148654  0.55793038     0.23400
C4169       C  0.39935737  0.61798963  0.56852837    -0.12500
C4170       C  0.41128468  0.63312490  0.56453273     0.04800
C4171       C  0.38833046  0.58541418  0.56205403     0.27200
C4172       C  0.37125680  0.58335374  0.55248946    -0.13200
C4173       C  0.36115212  0.56654986  0.55403378     0.05300
C4174       C  0.36797266  0.55206405  0.56542475    -0.09200
C4175       C  0.38426713  0.55472209  0.57611314     0.06100
C4176       C  0.39460788  0.57130263  0.57421641    -0.13600
Br4177     Br  0.38143913  0.61960355  0.58862755    -0.05600
Br4178     Br  0.44498369  0.61220958  0.52057540     0.00000
Br4179     Br  0.33829762  0.56303368  0.54020252     0.00400
Br4180     Br  0.41807686  0.57420874  0.58717277    -0.04000
Br4181     Br  0.40946942  0.65579184  0.57904849     0.00500
Br4182     Br  0.41542897  0.57732176  0.52889592    -0.03300
Br4183     Br  0.36237325  0.60315502  0.53653005    -0.04100
Br4184     Br  0.39305453  0.53519022  0.59246566    -0.00200
C4185       C  0.70957668  0.34863478  0.09172273     0.01300
C4186       C  0.71431634  0.36114190  0.10638291     0.04100
C4187       C  0.71201438  0.38053836  0.10398152    -0.12000
C4188       C  0.70482222  0.38761182  0.08713436     0.23400
C4189       C  0.70091796  0.37538180  0.07223651    -0.12500
C4190       C  0.70343603  0.35598611  0.07440839     0.04800
C4191       C  0.70022843  0.40777181  0.08545775     0.27200
C4192       C  0.68172265  0.41371486  0.08855938    -0.13200
C4193       C  0.67695623  0.43259159  0.08604005     0.05300
C4194       C  0.69076779  0.44571790  0.08092941    -0.09200
C4195       C  0.70941664  0.43992136  0.07843383     0.06100
C4196       C  0.71409439  0.42089706  0.08044470    -0.13600
Br4197     Br  0.69179485  0.38537371  0.04890392    -0.05600
Br4198     Br  0.72288307  0.35216016  0.13038499     0.00000
Br4199     Br  0.65138227  0.44047737  0.08936013     0.00400
Br4200     Br  0.73926007  0.41258599  0.07562455    -0.04000
Br4201     Br  0.69913591  0.33981551  0.05321105     0.00500
Br4202     Br  0.71816294  0.39757620  0.12399332    -0.03300
Br4203     Br  0.66282155  0.39583600  0.09589402    -0.04100
Br4204     Br  0.72831047  0.45787686  0.07139282    -0.00200
C4205       C  0.58396467  0.71751662  0.17682445     0.01300
C4206       C  0.56532489  0.71747037  0.17058173     0.04100
C4207       C  0.56122765  0.71248276  0.15198491    -0.12000
C4208       C  0.57578587  0.70731939  0.13973509     0.23400
C4209       C  0.59446398  0.70792644  0.14585930    -0.12500
C4210       C  0.59857577  0.71340231  0.16424468     0.04800
C4211       C  0.57170921  0.70152404  0.12026924     0.27200
C4212       C  0.56779609  0.68265000  0.11618069    -0.13200
C4213       C  0.56556976  0.67688038  0.09750061     0.05300
C4214       C  0.56704957  0.69006209  0.08286255    -0.09200
C4215       C  0.57065123  0.70902520  0.08705577     0.06100
C4216       C  0.57310888  0.71468290  0.10570053    -0.13600
Br4217     Br  0.61435701  0.70059331  0.12914355    -0.05600
Br4218     Br  0.54562587  0.72483284  0.18744459     0.00000
Br4219     Br  0.56169054  0.65072665  0.09201418     0.00400
Br4220     Br  0.57878203  0.74044679  0.11139346    -0.04000
Br4221     Br  0.62428109  0.71492272  0.17219124     0.00500
Br4222     Br  0.53575132  0.71244333  0.14329940    -0.03300
Br4223     Br  0.56603964  0.66467309  0.13623689    -0.04100
Br4224     Br  0.57155625  0.72753102  0.06739106    -0.00200
C4225       C  0.53231021  0.72660520  0.02457629     0.01300
C4226       C  0.51684443  0.72983712  0.03667233     0.04100
C4227       C  0.50824983  0.74757729  0.03736523    -0.12000
C4228       C  0.51583394  0.76274379  0.02732666     0.23400
C4229       C  0.53160489  0.75990192  0.01591827    -0.12500
C4230       C  0.53941239  0.74189411  0.01399072     0.04800
C4231       C  0.50737400  0.78176491  0.02891683     0.27200
C4232       C  0.49583165  0.78870232  0.01454443    -0.13200
C4233       C  0.48789339  0.80665696  0.01598063     0.05300
C4234       C  0.49091566  0.81763324  0.03207917    -0.09200
C4235       C  0.50255480  0.81073067  0.04646307     0.06100
C4236       C  0.51092744  0.79296614  0.04475595    -0.13600
Br4237     Br  0.54278443  0.78104334  0.00329124    -0.05600
Br4238     Br  0.50816260  0.71090364  0.05395391     0.00000
Br4239     Br  0.47326680  0.81648054  0.99557110     0.00400
Br4240     Br  0.52703774  0.78372956  0.06429936    -0.04000
Br4241     Br  0.55949028  0.73863980  0.99620760     0.00500
Br4242     Br  0.48600880  0.75129048  0.05225275    -0.03300
Br4243     Br  0.49045176  0.77333129  0.99307924    -0.04100
Br4244     Br  0.50604182  0.82488746  0.06917984    -0.00200
C4245       C  0.64904105  0.54964236  0.05680223     0.01300
C4246       C  0.63457354  0.55440333  0.06935580     0.04100
C4247       C  0.62157912  0.56833543  0.06459653    -0.12000
C4248       C  0.62383572  0.57870813  0.04801007     0.23400
C4249       C  0.63880251  0.57457384  0.03584189    -0.12500
C4250       C  0.65112512  0.55979130  0.04002934     0.04800
C4251       C  0.61152939  0.59505445  0.04434704     0.27200
C4252       C  0.59600441  0.59359435  0.03229408    -0.13200
C4253       C  0.58481573  0.60942559  0.02863487     0.05300
C4254       C  0.58895512  0.62668356  0.03730977    -0.09200
C4255       C  0.60402602  0.62782132  0.04998597     0.06100
C4256       C  0.61533468  0.61213746  0.05334464    -0.13600
Br4257     Br  0.64235710  0.58921418  0.01347611    -0.05600
Br4258     Br  0.63229384  0.54180476  0.09309242     0.00000
Br4259     Br  0.56437403  0.60760667  0.01116955     0.00400
Br4260     Br  0.63609164  0.61394435  0.07047394    -0.04000
Br4261     Br  0.67129277  0.55378926  0.02317264     0.00500
Br4262     Br  0.60024654  0.57287833  0.08048037    -0.03300
Br4263     Br  0.59001378  0.56981035  0.02108599    -0.04100
Br4264     Br  0.60872935  0.65064671  0.06360985    -0.00200
C4265       C  0.42494824  0.48220015  0.17311314     0.01300
C4266       C  0.41296129  0.48006628  0.15756700     0.04100
C4267       C  0.39368035  0.47741026  0.16028204    -0.12000
C4268       C  0.38634839  0.47615672  0.17848969     0.23400
C4269       C  0.39806897  0.47925289  0.19400124    -0.12500
C4270       C  0.41735580  0.48236458  0.19132118     0.04800
C4271       C  0.36691273  0.46934651  0.18116111     0.27200
C4272       C  0.35180122  0.48191610  0.18167126    -0.13200
C4273       C  0.33337597  0.47508844  0.18323160     0.05300
C4274       C  0.33004030  0.45564558  0.18424577    -0.09200
C4275       C  0.34517885  0.44309174  0.18345559     0.06100
C4276       C  0.36356440  0.44993974  0.18206803    -0.13600
Br4277     Br  0.38760391  0.47896211  0.21884424    -0.05600
Br4278     Br  0.42295758  0.47909061  0.13249446     0.00000
Br4279     Br  0.31279548  0.49243758  0.18466854     0.00400
Br4280     Br  0.38431750  0.43274536  0.18130068    -0.04000
Br4281     Br  0.43329140  0.48718610  0.21250674     0.00500
Br4282     Br  0.37719951  0.47498536  0.13907578    -0.03300
Br4283     Br  0.35644649  0.50844056  0.18029509    -0.04100
Br4284     Br  0.34071055  0.41646041  0.18326443    -0.00200
C4285       C  0.49265733  0.51903165  0.20589804     0.01300
C4286       C  0.50834757  0.51514420  0.21722167     0.04100
C4287       C  0.51028979  0.52383033  0.23473160    -0.12000
C4288       C  0.49683474  0.53678049  0.24082686     0.23400
C4289       C  0.48216709  0.54204062  0.22880481    -0.12500
C4290       C  0.47990388  0.53302225  0.21145152     0.04800
C4291       C  0.49661910  0.54283234  0.26067355     0.27200
C4292       C  0.48487640  0.53343428  0.27339159    -0.13200
C4293       C  0.48383573  0.53928605  0.29211755     0.05300
C4294       C  0.49523859  0.55420150  0.29853868    -0.09200
C4295       C  0.50764665  0.56306340  0.28581813     0.06100
C4296       C  0.50801762  0.55761713  0.26688232    -0.13600
Br4297     Br  0.46455922  0.56082392  0.23677885    -0.05600
Br4298     Br  0.52720866  0.49774402  0.20890390     0.00000
Br4299     Br  0.46541845  0.52755708  0.30813230     0.00400
Br4300     Br  0.52382794  0.57058121  0.24922461    -0.04000
Br4301     Br  0.45824831  0.53857219  0.19639748     0.00500
Br4302     Br  0.53074806  0.51715193  0.25094190    -0.03300
Br4303     Br  0.46988233  0.51257886  0.26488825    -0.04100
Br4304     Br  0.52469945  0.58228976  0.29416778    -0.00200
C4305       C  0.53654036  0.48463921  0.14506706     0.01300
C4306       C  0.54374524  0.46927709  0.13502309     0.04100
C4307       C  0.56143953  0.47055946  0.12643697    -0.12000
C4308       C  0.57207280  0.48709854  0.12799298     0.23400
C4309       C  0.56519799  0.50217175  0.13861203    -0.12500
C4310       C  0.54748639  0.50094545  0.14713582     0.04800
C4311       C  0.59012152  0.48888532  0.11779807     0.27200
C4312       C  0.60700912  0.48403890  0.12657782    -0.13200
C4313       C  0.62405156  0.48531215  0.11672412     0.05300
C4314       C  0.62426170  0.49137328  0.09784375    -0.09200
C4315       C  0.60722504  0.49662092  0.08925514     0.06100
C4316       C  0.59028834  0.49538136  0.09922931    -0.13600
Br4317     Br  0.57986633  0.52471483  0.14091599    -0.05600
Br4318     Br  0.52896176  0.44688508  0.13196859     0.00000
Br4319     Br  0.64684817  0.47818881  0.12924334     0.00400
Br4320     Br  0.56716272  0.50299032  0.08764940    -0.04000
Br4321     Br  0.53828188  0.52156188  0.16186924     0.00500
Br4322     Br  0.57090541  0.44998121  0.11182700    -0.03300
Br4323     Br  0.60661810  0.47574462  0.15225473    -0.04100
Br4324     Br  0.60683179  0.50688731  0.06423423    -0.00200
C4325       C  0.45490712  0.35318342  0.93293425     0.01300
C4326       C  0.45464684  0.33449233  0.92678422     0.04100
C4327       C  0.45124370  0.33048703  0.90787055    -0.12000
C4328       C  0.44825495  0.34518132  0.89512668     0.23400
C4329       C  0.44906134  0.36388997  0.90116491    -0.12500
C4330       C  0.45253650  0.36791780  0.92003743     0.04800
C4331       C  0.44371620  0.34103022  0.87543637     0.27200
C4332       C  0.45814304  0.33898663  0.86221108    -0.13200
C4333       C  0.45375402  0.33571912  0.84335901     0.05300
C4334       C  0.43490953  0.33508498  0.83765331    -0.09200
C4335       C  0.42046619  0.33700633  0.85097243     0.06100
C4336       C  0.42489947  0.33971362  0.86988972    -0.13600
Br4337     Br  0.44460133  0.38393391  0.88364759    -0.05600
Br4338     Br  0.45952706  0.31448104  0.94419646     0.00000
Br4339     Br  0.47354046  0.33133334  0.82553200     0.00400
Br4340     Br  0.40525695  0.34196737  0.88828352    -0.04000
Br4341     Br  0.45308180  0.39364109  0.92825424     0.00500
Br4342     Br  0.45005718  0.30492195  0.89942429    -0.03300
Br4343     Br  0.48386914  0.34099536  0.86999114    -0.04100
Br4344     Br  0.39459558  0.33716135  0.84328343    -0.00200
C4345       C  0.48820918  0.32118968  0.00060591     0.01300
C4346       C  0.48093519  0.30643886  0.01180030     0.04100
C4347       C  0.49018815  0.28909677  0.01266037    -0.12000
C4348       C  0.50723063  0.28650545  0.00322998     0.23400
C4349       C  0.51531602  0.30146718  0.99330620    -0.12500
C4350       C  0.50582920  0.31866232  0.99173335     0.04800
C4351       C  0.51626774  0.26778074  0.00314591     0.27200
C4352       C  0.52760416  0.26211546  0.01819639    -0.13200
C4353       C  0.53574580  0.24418629  0.01823112     0.05300
C4354       C  0.53295903  0.23198331  0.00297379    -0.09200
C4355       C  0.52181124  0.23782306  0.98777332     0.06100
C4356       C  0.51331606  0.25555937  0.98799104    -0.13600
Br4357     Br  0.53931020  0.29801971  0.98139691    -0.05600
Br4358     Br  0.45869275  0.30974677  0.02682231     0.00000
Br4359     Br  0.55014702  0.23612852  0.03952554     0.00400
Br4360     Br  0.49774570  0.26332419  0.96739156    -0.04000
Br4361     Br  0.51702660  0.33793330  0.97636646     0.00500
Br4362     Br  0.47925717  0.26846796  0.02630445    -0.03300
Br4363     Br  0.53213922  0.27913567  0.03859805    -0.04100
Br4364     Br  0.51914022  0.22214156  0.96596996    -0.00200
C4365       C  0.45471023  0.38684209  0.04206775     0.01300
C4366       C  0.44127977  0.40050209  0.04653261     0.04100
C4367       C  0.44349700  0.41147342  0.06266628    -0.12000
C4368       C  0.45874229  0.40829081  0.07467727     0.23400
C4369       C  0.47120018  0.39350142  0.07106454    -0.12500
C4370       C  0.46936350  0.38297893  0.05458220     0.04800
C4371       C  0.46266888  0.42163067  0.08999044     0.27200
C4372       C  0.47517495  0.43655333  0.08684931    -0.13200
C4373       C  0.47870227  0.44962851  0.10107361     0.05300
C4374       C  0.46958534  0.44789554  0.11849380    -0.09200
C4375       C  0.45689581  0.43299081  0.12154200     0.06100
C4376       C  0.45359406  0.41980288  0.10734372    -0.13600
Br4377     Br  0.49129340  0.38839189  0.08823913    -0.05600
Br4378     Br  0.42064886  0.40515097  0.02984386     0.00000
Br4379     Br  0.49672803  0.46932314  0.09681471     0.00400
Br4380     Br  0.43669889  0.39914165  0.11154555    -0.04000
Br4381     Br  0.48721365  0.36366743  0.04871854     0.00500
Br4382     Br  0.42654060  0.43182377  0.06761618    -0.03300
Br4383     Br  0.48752766  0.43896236  0.06294885    -0.04100
Br4384     Br  0.44323648  0.43100374  0.14478318    -0.00200
C4385       C  0.33190760  0.59707646  0.94227257     0.01300
C4386       C  0.31370856  0.60409617  0.94480739     0.04100
C4387       C  0.31033116  0.62341497  0.94325736    -0.12000
C4388       C  0.32522248  0.63579440  0.93953176     0.23400
C4389       C  0.34353693  0.62886999  0.93770054    -0.12500
C4390       C  0.34690735  0.60956893  0.93922128     0.04800
C4391       C  0.32166207  0.65607531  0.93716540     0.27200
C4392       C  0.31774224  0.66322937  0.91927371    -0.13200
C4393       C  0.31518079  0.68254467  0.91674321     0.05300
C4394       C  0.31631850  0.69479572  0.93218297    -0.09200
C4395       C  0.32010513  0.68759460  0.95012806     0.06100
C4396       C  0.32277782  0.66824885  0.95260263    -0.13600
Br4397     Br  0.36394769  0.64592460  0.93293996    -0.05600
Br4398     Br  0.29371785  0.58745925  0.95181130     0.00000
Br4399     Br  0.31114443  0.69220877  0.89186214     0.00400
Br4400     Br  0.32796804  0.65829629  0.97709744    -0.04000
Br4401     Br  0.37215065  0.60032054  0.93722089     0.00500
Br4402     Br  0.28534996  0.63302721  0.94623556    -0.03300
Br4403     Br  0.31607447  0.64644499  0.89821640    -0.04100
Br4404     Br  0.32101410  0.70411428  0.97140685    -0.00200
C4405       C  0.36317407  0.48687130  0.94674771     0.01300
C4406       C  0.37799257  0.48234734  0.93454168     0.04100
C4407       C  0.38936395  0.46677640  0.93835307    -0.12000
C4408       C  0.38542738  0.45529746  0.95388631     0.23400
C4409       C  0.36956122  0.45881798  0.96498423    -0.12500
C4410       C  0.35857917  0.47470198  0.96153451     0.04800
C4411       C  0.39858609  0.44029978  0.95936929     0.27200
C4412       C  0.39585882  0.42191367  0.95300296    -0.13200
C4413       C  0.40798096  0.40760277  0.95882491     0.05300
C4414       C  0.42280175  0.41159997  0.97132199    -0.09200
C4415       C  0.42571757  0.43018802  0.97735723     0.06100
C4416       C  0.41354611  0.44444862  0.97146332    -0.13600
Br4417     Br  0.36352145  0.44236450  0.98550745    -0.05600
Br4418     Br  0.38347276  0.49807450  0.91329137     0.00000
Br4419     Br  0.40462232  0.38274678  0.94875942     0.00400
Br4420     Br  0.41689358  0.46971212  0.98038018    -0.04000
Br4421     Br  0.33733920  0.47999026  0.97717977     0.00500
Br4422     Br  0.41109498  0.46185681  0.92315592    -0.03300
Br4423     Br  0.37520577  0.41639458  0.93656461    -0.04100
Br4424     Br  0.44577943  0.43622686  0.99434596    -0.00200
C4425       C  0.58256734  0.58073082  0.82687608     0.01300
C4426       C  0.59650802  0.58190347  0.84073703     0.04100
C4427       C  0.61515666  0.58508763  0.83557118    -0.12000
C4428       C  0.61996609  0.58680229  0.81655531     0.23400
C4429       C  0.60611502  0.58540773  0.80266739    -0.12500
C4430       C  0.58736602  0.58252817  0.80782239     0.04800
C4431       C  0.63949761  0.59116202  0.81145587     0.27200
C4432       C  0.64471654  0.60985558  0.80818098    -0.13200
C4433       C  0.66362860  0.61450337  0.80575193     0.05300
C4434       C  0.67741456  0.60044868  0.80696077    -0.09200
C4435       C  0.67208664  0.58161713  0.80960316     0.06100
C4436       C  0.65309583  0.57697336  0.81164104    -0.13600
Br4437     Br  0.61289971  0.58768560  0.77665343    -0.05600
Br4438     Br  0.59001867  0.58029430  0.86692483     0.00000
Br4439     Br  0.67051255  0.64042128  0.80227442     0.00400
Br4440     Br  0.64560308  0.55128099  0.81525632    -0.04000
Br4441     Br  0.56840717  0.58061097  0.78872897     0.00500
Br4442     Br  0.63410911  0.58780172  0.85458667    -0.03300
Br4443     Br  0.62594932  0.62923143  0.80809855    -0.04100
Br4444     Br  0.69069742  0.56212051  0.81030589    -0.00200
C4445       C  0.51676539  0.48706847  0.71180778     0.01300
C4446       C  0.50978741  0.47926169  0.72888515     0.04100
C4447       C  0.50864797  0.49034043  0.74514577    -0.12000
C4448       C  0.51543277  0.50875076  0.74508394     0.23400
C4449       C  0.52168140  0.51684139  0.72833178    -0.12500
C4450       C  0.52155039  0.50645987  0.71160748     0.04800
C4451       C  0.51685456  0.51937029  0.76286684     0.27200
C4452       C  0.50233431  0.53134742  0.76853326    -0.13200
C4453       C  0.50398024  0.54166571  0.78522001     0.05300
C4454       C  0.52029754  0.54018844  0.79623893    -0.09200
C4455       C  0.53484252  0.52813482  0.79046946     0.06100
C4456       C  0.53304513  0.51770282  0.77389458    -0.13600
Br4457     Br  0.53108754  0.54219957  0.72864683    -0.05600
Br4458     Br  0.50195675  0.45341643  0.73127650     0.00000
Br4459     Br  0.48351969  0.55729568  0.79319321     0.00400
Br4460     Br  0.55298029  0.50138971  0.76587895    -0.04000
Br4461     Br  0.52752658  0.51989308  0.68884992     0.00500
Br4462     Br  0.49802044  0.48036097  0.76794899    -0.03300
Br4463     Br  0.48030146  0.53366604  0.75320752    -0.04100
Br4464     Br  0.55787927  0.52672880  0.80443511    -0.00200
C4465       C  0.47489262  0.56632564  0.86236083     0.01300
C4466       C  0.46762963  0.58102296  0.87328795     0.04100
C4467       C  0.45072971  0.57854945  0.88293956    -0.12000
C4468       C  0.44121705  0.56133428  0.88185030     0.23400
C4469       C  0.44797602  0.54697647  0.87022470    -0.12500
C4470       C  0.46484373  0.54947074  0.86046783     0.04800
C4471       C  0.42441620  0.55818741  0.89342043     0.27200
C4472       C  0.42586407  0.54820529  0.91032402    -0.13200
C4473       C  0.40996348  0.54541866  0.92154020     0.05300
C4474       C  0.39256045  0.55283859  0.91590031    -0.09200
C4475       C  0.39130571  0.56316068  0.89903697     0.06100
C4476       C  0.40715974  0.56553984  0.88772539    -0.13600
Br4477     Br  0.43417542  0.52387123  0.86794131    -0.05600
Br4478     Br  0.48141635  0.60408653  0.87626054     0.00000
Br4479     Br  0.41215800  0.53046773  0.94395450     0.00400
Br4480     Br  0.40531379  0.57867847  0.86419626    -0.04000
Br4481     Br  0.47404278  0.52996453  0.84428832     0.00500
Br4482     Br  0.44078144  0.59858278  0.89803363    -0.03300
Br4483     Br  0.44967983  0.53803797  0.91786969    -0.04100
Br4484     Br  0.36817181  0.57486469  0.89145710    -0.00200
C4485       C  0.53756856  0.60586029  0.88972297     0.01300
C4486       C  0.53085185  0.60014034  0.90744163     0.04100
C4487       C  0.53427519  0.61120923  0.92336621    -0.12000
C4488       C  0.54352422  0.62854480  0.92163664     0.23400
C4489       C  0.54973282  0.63457567  0.90393559    -0.12500
C4490       C  0.54721452  0.62309121  0.88811716     0.04800
C4491       C  0.54712006  0.64009515  0.93859738     0.27200
C4492       C  0.53282128  0.65126181  0.94624510    -0.13200
C4493       C  0.53560087  0.66056823  0.96338921     0.05300
C4494       C  0.55282163  0.65898017  0.97288466    -0.09200
C4495       C  0.56750317  0.64865751  0.96462173     0.06100
C4496       C  0.56456549  0.63910419  0.94765052    -0.13600
Br4497     Br  0.56172668  0.65864205  0.90147498    -0.05600
Br4498     Br  0.51596489  0.57771059  0.90998572     0.00000
Br4499     Br  0.51583671  0.67570652  0.97373583     0.00400
Br4500     Br  0.58412118  0.62375432  0.93721358    -0.04000
Br4501     Br  0.55816028  0.63057516  0.86457451     0.00500
Br4502     Br  0.52656669  0.60252840  0.94775371    -0.03300
Br4503     Br  0.50925464  0.65336211  0.93336254    -0.04100
Br4504     Br  0.59131045  0.64630964  0.97707733    -0.00200
C4505       C  0.07893282  0.70695636  0.33613556     0.01300
C4506       C  0.09247114  0.70397138  0.35009748     0.04100
C4507       C  0.08691376  0.70170587  0.36880779    -0.12000
C4508       C  0.06783273  0.70256106  0.37362060     0.23400
C4509       C  0.05428571  0.70543749  0.35964767    -0.12500
C4510       C  0.05982295  0.70751820  0.34088404     0.04800
C4511       C  0.06212191  0.69966536  0.39332811     0.27200
C4512       C  0.05799788  0.68149581  0.39965325    -0.13200
C4513       C  0.05453343  0.67825545  0.41871732     0.05300
C4514       C  0.05462857  0.69331147  0.43150148    -0.09200
C4515       C  0.05820589  0.71161512  0.42503687     0.06100
C4516       C  0.06206813  0.71475740  0.40597547    -0.13600
Br4517     Br  0.02821008  0.70673147  0.36632064    -0.05600
Br4518     Br  0.11859809  0.70239244  0.34350405     0.00000
Br4519     Br  0.05136159  0.65286386  0.42738141     0.00400
Br4520     Br  0.06773972  0.73961229  0.39711559    -0.04000
Br4521     Br  0.04131622  0.71187175  0.32177027     0.00500
Br4522     Br  0.10539039  0.69733968  0.38793893    -0.03300
Br4523     Br  0.05774433  0.66095854  0.38214469    -0.04100
Br4524     Br  0.05755462  0.73239569  0.44219570    -0.00200
C4525       C  0.02219419  0.72778037  0.49767873     0.01300
C4526       C  0.02876015  0.74067810  0.51115560     0.04100
C4527       C  0.02202166  0.75911469  0.51125611    -0.12000
C4528       C  0.00778777  0.76440132  0.49881162     0.23400
C4529       C  0.00016202  0.75123675  0.48635562    -0.12500
C4530       C  0.00775754  0.73317234  0.48527243     0.04800
C4531       C  0.00106969  0.78393854  0.49843370     0.27200
C4532       C  0.98817745  0.79012144  0.51192121    -0.13200
C4533       C  0.98122995  0.80845433  0.51111334     0.05300
C4534       C  0.98650099  0.82040549  0.49625587    -0.09200
C4535       C  0.99952174  0.81415630  0.48276656     0.06100
C4536       C  0.00704014  0.79607602  0.48409712    -0.13600
Br4537     Br  0.97951203  0.75825722  0.47046361    -0.05600
Br4538     Br  0.04659742  0.73315815  0.52994228     0.00000
Br4539     Br  0.96471446  0.81712802  0.53063516     0.00400
Br4540     Br  0.02497577  0.78755041  0.46579492    -0.04000
Br4541     Br  0.99937880  0.71685082  0.46543755     0.00500
Br4542     Br  0.03270771  0.77740172  0.52797944    -0.03300
Br4543     Br  0.97937471  0.77307038  0.53094368    -0.04100
Br4544     Br  0.00585716  0.82943790  0.46136353    -0.00200
C4545       C  0.17864446  0.59558766  0.70470338     0.01300
C4546       C  0.16364270  0.60820513  0.70297738     0.04100
C4547       C  0.14539961  0.60138042  0.70052887    -0.12000
C4548       C  0.14219779  0.58198888  0.69923522     0.23400
C4549       C  0.15715049  0.56936830  0.70094692    -0.12500
C4550       C  0.17536434  0.57613921  0.70384509     0.04800
C4551       C  0.12345350  0.57514448  0.69392571     0.27200
C4552       C  0.10979239  0.57154322  0.70765878    -0.13200
C4553       C  0.09137124  0.56727934  0.70224383     0.05300
C4554       C  0.08677672  0.56635346  0.68310672    -0.09200
C4555       C  0.10082299  0.56856019  0.66944489     0.06100
C4556       C  0.11906596  0.57327394  0.67485291    -0.13600
Br4557     Br  0.15268756  0.54288155  0.69843332    -0.05600
Br4558     Br  0.16823037  0.63482443  0.70199014     0.00000
Br4559     Br  0.07254762  0.56224784  0.72094415     0.00400
Br4560     Br  0.13794182  0.57813070  0.65613420    -0.04000
Br4561     Br  0.19576438  0.55871247  0.70661461     0.00500
Br4562     Br  0.12482717  0.61858775  0.69792320    -0.03300
Br4563     Br  0.11634131  0.57288053  0.73376176    -0.04100
Br4564     Br  0.09499055  0.56606472  0.64323155    -0.00200
C4565       C  0.04963892  0.65513910  0.53939645     0.01300
C4566       C  0.06443808  0.64243279  0.54250329     0.04100
C4567       C  0.06441290  0.63086748  0.55844350    -0.12000
C4568       C  0.04966070  0.63190484  0.57143662     0.23400
C4569       C  0.03514571  0.64491751  0.56865978    -0.12500
C4570       C  0.03506380  0.65641425  0.55262154     0.04800
C4571       C  0.04885935  0.61851673  0.58737882     0.27200
C4572       C  0.03878908  0.60165594  0.58554971    -0.13200
C4573       C  0.03778617  0.58894520  0.60057884     0.05300
C4574       C  0.04637037  0.59334612  0.61781260    -0.09200
C4575       C  0.05713596  0.60987935  0.61933271     0.06100
C4576       C  0.05831832  0.62243253  0.60418292    -0.13600
Br4577     Br  0.01515608  0.64654973  0.58668854    -0.05600
Br4578     Br  0.08412853  0.63962401  0.52426995     0.00000
Br4579     Br  0.02385641  0.56597984  0.59756943     0.00400
Br4580     Br  0.07246045  0.64529718  0.60655476    -0.04000
Br4581     Br  0.01502178  0.67394809  0.54875514     0.00500
Br4582     Br  0.08419822  0.61294010  0.56217295    -0.03300
Br4583     Br  0.02568405  0.59642087  0.56257710    -0.04100
Br4584     Br  0.07090553  0.61504817  0.64196334    -0.00200
C4585       C  0.18104235  0.44888963  0.45509266     0.01300
C4586       C  0.16745899  0.43455750  0.45522208     0.04100
C4587       C  0.17289844  0.41595563  0.45267504    -0.12000
C4588       C  0.19187278  0.41164083  0.45000796     0.23400
C4589       C  0.20550293  0.42584155  0.45000338    -0.12500
C4590       C  0.20009509  0.44454530  0.45245443     0.04800
C4591       C  0.19710845  0.39220142  0.44596117     0.27200
C4592       C  0.19957758  0.37941278  0.46069398    -0.13200
C4593       C  0.20186276  0.36034284  0.45674627     0.05300
C4594       C  0.20200845  0.35421870  0.43803482    -0.09200
C4595       C  0.20023827  0.36718940  0.42326946     0.06100
C4596       C  0.19768500  0.38617311  0.42727334    -0.13600
Br4597     Br  0.23147016  0.41949895  0.44651343    -0.05600
Br4598     Br  0.14118690  0.44034984  0.45770875     0.00000
Br4599     Br  0.20473970  0.34267701  0.47694471     0.00400
Br4600     Br  0.19385869  0.40387332  0.40723537    -0.04000
Br4601     Br  0.21885640  0.46399230  0.45268849     0.00500
Br4602     Br  0.15430667  0.39631723  0.45229672    -0.03300
Br4603     Br  0.19913778  0.38806126  0.48621851    -0.04100
Br4604     Br  0.19968591  0.35895838  0.39754223    -0.00200
C4605       C  0.20894666  0.51270368  0.49460026     0.01300
C4606       C  0.21515031  0.49820262  0.50647608     0.04100
C4607       C  0.23240212  0.49982717  0.51567364    -0.12000
C4608       C  0.24368940  0.51572533  0.51279284     0.23400
C4609       C  0.23733158  0.53044617  0.50142216    -0.12500
C4610       C  0.21987856  0.52904692  0.49249015     0.04800
C4611       C  0.26295462  0.51592799  0.52029751     0.27200
C4612       C  0.26692521  0.52462229  0.53744265    -0.13200
C4613       C  0.28486244  0.52305114  0.54536391     0.05300
C4614       C  0.29880174  0.51215991  0.53637898    -0.09200
C4615       C  0.29473306  0.50389440  0.51878265     0.06100
C4616       C  0.27700434  0.50615997  0.51069887    -0.13600
Br4617     Br  0.25302772  0.55205878  0.49743104    -0.05600
Br4618     Br  0.20105240  0.47523916  0.50891769     0.00000
Br4619     Br  0.28998683  0.53633328  0.56832239     0.00400
Br4620     Br  0.27150630  0.49526582  0.48657766    -0.04000
Br4621     Br  0.21092365  0.54965489  0.47758214     0.00500
Br4622     Br  0.24121697  0.47975942  0.53143515    -0.03300
Br4623     Br  0.24747208  0.53826922  0.55020668    -0.04100
Br4624     Br  0.31239060  0.48794417  0.50595251    -0.00200
C4625       C  0.07853371  0.63140765  0.47319686     0.01300
C4626       C  0.09606705  0.63319755  0.46425151     0.04100
C4627       C  0.10824329  0.61794256  0.46365418    -0.12000
C4628       C  0.10234575  0.60051703  0.47056842     0.23400
C4629       C  0.08428712  0.59822648  0.47803057    -0.12500
C4630       C  0.07246952  0.61374821  0.47975220     0.04800
C4631       C  0.11504767  0.58446506  0.46947448     0.27200
C4632       C  0.11736544  0.57521052  0.45231716    -0.13200
C4633       C  0.12947490  0.55992970  0.45108670     0.05300
C4634       C  0.13900804  0.55368749  0.46719308    -0.09200
C4635       C  0.13675832  0.56309234  0.48436760     0.06100
C4636       C  0.12482642  0.57857523  0.48547129    -0.13600
Br4637     Br  0.07602953  0.57384277  0.48628784    -0.05600
Br4638     Br  0.10324958  0.65622689  0.45198145     0.00000
Br4639     Br  0.13160686  0.54684607  0.42754346     0.00400
Br4640     Br  0.12147228  0.59150122  0.50892949    -0.04000
Br4641     Br  0.04870997  0.61069560  0.49229280     0.00500
Br4642     Br  0.13327645  0.62097462  0.45392159    -0.03300
Br4643     Br  0.10323664  0.58306254  0.43070042    -0.04100
Br4644     Br  0.15007738  0.55491494  0.50635863    -0.00200
C4645       C  0.92600206  0.47627157  0.33625106     0.01300
C4646       C  0.92125373  0.47709986  0.31715727     0.04100
C4647       C  0.90254442  0.47447389  0.31161659    -0.12000
C4648       C  0.88866706  0.47101235  0.32519730     0.23400
C4649       C  0.89322651  0.47172402  0.34432049    -0.12500
C4650       C  0.91186917  0.47427005  0.34985412     0.04800
C4651       C  0.86990257  0.46416971  0.31970299     0.27200
C4652       C  0.85528068  0.47674698  0.31584463    -0.13200
C4653       C  0.83702934  0.46993005  0.31288346     0.05300
C4654       C  0.83342988  0.45055756  0.31391614    -0.09200
C4655       C  0.84813586  0.43800308  0.31744505     0.06100
C4656       C  0.86635155  0.44478203  0.32015922    -0.13600
Br4657     Br  0.87389722  0.46834846  0.36288797    -0.05600
Br4658     Br  0.94034211  0.48213337  0.29873622     0.00000
Br4659     Br  0.81704359  0.48702521  0.30705329     0.00400
Br4660     Br  0.88648249  0.42752545  0.32505729    -0.04000
Br4661     Br  0.91812156  0.47377939  0.37608628     0.00500
Br4662     Br  0.89591281  0.47523903  0.28552657    -0.03300
Br4663     Br  0.86028573  0.50322873  0.31493580    -0.04100
Br4664     Br  0.84313609  0.41155201  0.31973268    -0.00200
C4665       C  0.11615462  0.49143727  0.43011072     0.01300
C4666       C  0.11732551  0.48169505  0.41296681     0.04100
C4667       C  0.10116527  0.47884402  0.40211270    -0.12000
C4668       C  0.08374155  0.48540234  0.40843760     0.23400
C4669       C  0.08249947  0.49507162  0.42552680    -0.12500
C4670       C  0.09869207  0.49843744  0.43615387     0.04800
C4671       C  0.06678086  0.48274737  0.39681056     0.27200
C4672       C  0.06113766  0.49698156  0.38444998    -0.13200
C4673       C  0.04457733  0.49496243  0.37409553     0.05300
C4674       C  0.03348457  0.47876664  0.37618680    -0.09200
C4675       C  0.03944147  0.46423609  0.38810721     0.06100
C4676       C  0.05608555  0.46624675  0.39840331    -0.13600
Br4677     Br  0.05850949  0.50380205  0.43425047    -0.05600
Br4678     Br  0.14088351  0.47174519  0.40442211     0.00000
Br4679     Br  0.03715649  0.51433333  0.35683009     0.00400
Br4680     Br  0.06393177  0.44677577  0.41530077    -0.04000
Br4681     Br  0.09699757  0.51403429  0.45813829     0.00500
Br4682     Br  0.10275153  0.46605200  0.37843467    -0.03300
Br4683     Br  0.07587615  0.51949905  0.38217523    -0.04100
Br4684     Br  0.02420569  0.44215417  0.39140132    -0.00200
C4685       C  0.95216388  0.34750531  0.58588471     0.01300
C4686       C  0.94897185  0.36263142  0.59813805     0.04100
C4687       C  0.94604157  0.35937382  0.61727453    -0.12000
C4688       C  0.94643092  0.34101552  0.62430927     0.23400
C4689       C  0.94989621  0.32588457  0.61217456    -0.12500
C4690       C  0.95269962  0.32911693  0.59293613     0.04800
C4691       C  0.94267028  0.33769864  0.64441877     0.27200
C4692       C  0.95744038  0.33793460  0.65741198    -0.13200
C4693       C  0.95370821  0.33548142  0.67658352     0.05300
C4694       C  0.93518866  0.33250133  0.68274085    -0.09200
C4695       C  0.92045664  0.33200713  0.66965309     0.06100
C4696       C  0.92416520  0.33502604  0.65059682    -0.13600
Br4697     Br  0.95078493  0.30080926  0.62203997    -0.05600
Br4698     Br  0.94792604  0.38789315  0.58871964     0.00000
Br4699     Br  0.97407039  0.33546809  0.69426059     0.00400
Br4700     Br  0.90382185  0.33642125  0.63298000    -0.04000
Br4701     Br  0.95790293  0.30851887  0.57635998     0.00500
Br4702     Br  0.94117075  0.38002682  0.63393522    -0.03300
Br4703     Br  0.98270397  0.34201528  0.64885469    -0.04100
Br4704     Br  0.89501965  0.32786381  0.67779285    -0.00200
C4705       C  0.03033005  0.22559750  0.52228318     0.01300
C4706       C  0.03359590  0.23663933  0.50619170     0.04100
C4707       C  0.02448882  0.25394254  0.50416492    -0.12000
C4708       C  0.01141286  0.25977235  0.51766704     0.23400
C4709       C  0.00717622  0.24817674  0.53299371    -0.12500
C4710       C  0.01726032  0.23163694  0.53582378     0.04800
C4711       C  0.00379773  0.27898247  0.51717449     0.27200
C4712       C  0.01115198  0.29250965  0.52943431    -0.13200
C4713       C  0.00287384  0.31024996  0.53066912     0.05300
C4714       C  0.98764956  0.31485762  0.51891691    -0.09200
C4715       C  0.98150971  0.30176261  0.50540692     0.06100
C4716       C  0.98900288  0.28360872  0.50513237    -0.13600
Br4717     Br  0.98797789  0.25543403  0.55054678    -0.05600
Br4718     Br  0.05043158  0.22828251  0.48683017     0.00000
Br4719     Br  0.01189602  0.32733618  0.54955791     0.00400
Br4720     Br  0.97833025  0.26473707  0.48906620    -0.04000
Br4721     Br  0.01480517  0.21888373  0.55955309     0.00500
Br4722     Br  0.03042257  0.27009004  0.48333921    -0.03300
Br4723     Br  0.03215948  0.28628899  0.54523229    -0.04100
Br4724     Br  0.96358574  0.30881213  0.48652232    -0.00200
C4725       C  0.95793082  0.38499932  0.47812023     0.01300
C4726       C  0.94239039  0.39641621  0.47394711     0.04100
C4727       C  0.94317079  0.40892110  0.45880005    -0.12000
C4728       C  0.95919355  0.40962564  0.44739366     0.23400
C4729       C  0.97437376  0.39763194  0.45099720    -0.12500
C4730       C  0.97383572  0.38548994  0.46646448     0.04800
C4731       C  0.96029398  0.42318819  0.43176998     0.27200
C4732       C  0.95144077  0.41919082  0.41467526    -0.13200
C4733       C  0.95384843  0.43124772  0.39934355     0.05300
C4734       C  0.96517757  0.44736595  0.40106746    -0.09200
C4735       C  0.97335096  0.45178899  0.41847294     0.06100
C4736       C  0.97079613  0.43975155  0.43381284    -0.13600
Br4737     Br  0.99611483  0.39829919  0.43497406    -0.05600
Br4738     Br  0.92043704  0.39607885  0.48967685     0.00000
Br4739     Br  0.94144585  0.42559755  0.37603335     0.00400
Br4740     Br  0.98212351  0.44561560  0.45757754    -0.04000
Br4741     Br  0.99486742  0.36947694  0.47164490     0.00500
Br4742     Br  0.92271550  0.42586381  0.45420675    -0.03300
Br4743     Br  0.93634930  0.39691951  0.41219403    -0.04100
Br4744     Br  0.98938175  0.47341616  0.42110838    -0.00200
C4745       C  0.82948359  0.59454884  0.56556337     0.01300
C4746       C  0.81050767  0.59853395  0.56921508     0.04100
C4747       C  0.80485209  0.61712505  0.57197481    -0.12000
C4748       C  0.81813946  0.63163135  0.57101496     0.23400
C4749       C  0.83689094  0.62772463  0.56659568    -0.12500
C4750       C  0.84263012  0.60918389  0.56410733     0.04800
C4751       C  0.81321442  0.65068631  0.57700110     0.27200
C4752       C  0.80988840  0.66474633  0.56365490    -0.13200
C4753       C  0.80841841  0.68345825  0.56939683     0.05300
C4754       C  0.80923577  0.68785739  0.58857154    -0.09200
C4755       C  0.81171124  0.67365408  0.60196506     0.06100
C4756       C  0.81402807  0.65511129  0.59615162    -0.13600
Br4757     Br  0.85490427  0.64782239  0.56494723    -0.05600
Br4758     Br  0.79224044  0.57863065  0.57045291     0.00000
Br4759     Br  0.80531421  0.70298684  0.55104366     0.00400
Br4760     Br  0.81900751  0.63579547  0.61434448    -0.04000
Br4761     Br  0.86885645  0.60385469  0.56061249     0.00500
Br4762     Br  0.77911984  0.62280464  0.57770042    -0.03300
Br4763     Br  0.80741594  0.65823921  0.53762308    -0.04100
Br4764     Br  0.81287377  0.67969740  0.62824503    -0.00200
C4765       C  0.79798458  0.53048758  0.53341447     0.01300
C4766       C  0.78363553  0.51917692  0.54122647     0.04100
C4767       C  0.76544608  0.51971703  0.53380828    -0.12000
C4768       C  0.76165317  0.53057359  0.51790885     0.23400
C4769       C  0.77606168  0.54068981  0.50915468    -0.12500
C4770       C  0.79407972  0.54103490  0.51700145     0.04800
C4771       C  0.74240556  0.53158138  0.51042331     0.27200
C4772       C  0.73603457  0.51790678  0.49783159    -0.13200
C4773       C  0.71801313  0.51922961  0.49019279     0.05300
C4774       C  0.70664424  0.53482429  0.49433812    -0.09200
C4775       C  0.71295092  0.54835352  0.50731133     0.06100
C4776       C  0.73073116  0.54657180  0.51547321    -0.13600
Br4777     Br  0.77075100  0.55444078  0.48649297    -0.05600
Br4778     Br  0.78865147  0.50209629  0.56153435     0.00000
Br4779     Br  0.70880254  0.49926659  0.47450719     0.00400
Br4780     Br  0.73959605  0.56512265  0.53297123    -0.04000
Br4781     Br  0.81251821  0.55713984  0.50538985     0.00500
Br4782     Br  0.74539697  0.50597803  0.54564385    -0.03300
Br4783     Br  0.75247174  0.49791107  0.49034293    -0.04100
Br4784     Br  0.69811875  0.57016703  0.51300593    -0.00200
C4785       C  0.92578351  0.40813992  0.54401538     0.01300
C4786       C  0.93113974  0.42597972  0.53736068     0.04100
C4787       C  0.92014865  0.44166118  0.54157991    -0.12000
C4788       C  0.90349013  0.43948285  0.55183754     0.23400
C4789       C  0.89815424  0.42180568  0.55857851    -0.12500
C4790       C  0.90931097  0.40613837  0.55480608     0.04800
C4791       C  0.89102558  0.45564663  0.55460102     0.27200
C4792       C  0.89242363  0.46653968  0.57090054    -0.13200
C4793       C  0.88121292  0.48250056  0.57295487     0.05300
C4794       C  0.86880936  0.48767279  0.55852286    -0.09200
C4795       C  0.86682912  0.47624808  0.54262852     0.06100
C4796       C  0.87789522  0.46019456  0.54070174    -0.13600
Br4797     Br  0.87535239  0.41918609  0.57281014    -0.05600
Br4798     Br  0.95256501  0.42894892  0.52110976     0.00000
Br4799     Br  0.88379992  0.49777590  0.59505687     0.00400
Br4800     Br  0.87540357  0.44453158  0.51888895    -0.04000
Br4801     Br  0.90197841  0.38214094  0.56490452     0.00500
Br4802     Br  0.92769286  0.46619529  0.53313299    -0.03300
Br4803     Br  0.91017711  0.45985380  0.59004166    -0.04100
Br4804     Br  0.84872166  0.48245978  0.52366853    -0.00200
C4805       C  0.89640825  0.55285363  0.58883927     0.01300
C4806       C  0.89675742  0.56476420  0.60455766     0.04100
C4807       C  0.91340791  0.56716580  0.61473193    -0.12000
C4808       C  0.92977843  0.55776683  0.60919954     0.23400
C4809       C  0.92962685  0.54638506  0.59314227    -0.12500
C4810       C  0.91297908  0.54384409  0.58301440     0.04800
C4811       C  0.94696044  0.55920627  0.62070503     0.27200
C4812       C  0.95912155  0.57457594  0.61857018    -0.13200
C4813       C  0.97546982  0.57577421  0.62942105     0.05300
C4814       C  0.97998262  0.56129819  0.64205872    -0.09200
C4815       C  0.96775127  0.54597393  0.64423117     0.06100
C4816       C  0.95118043  0.54502787  0.63371100    -0.13600
Br4817     Br  0.95224345  0.53397687  0.58529640    -0.05600
Br4818     Br  0.87459842  0.57826417  0.61189121     0.00000
Br4819     Br  0.99208739  0.59684452  0.62618802     0.00400
Br4820     Br  0.93429571  0.52417083  0.63684260    -0.04000
Br4821     Br  0.91279100  0.52699192  0.56190785     0.00500
Br4822     Br  0.91382971  0.58310717  0.63646960    -0.03300
Br4823     Br  0.95366905  0.59358844  0.60023185    -0.04100
Br4824     Br  0.97354960  0.52644413  0.66189348    -0.00200
C4825       C  0.92427998  0.72983313  0.84077554     0.01300
C4826       C  0.94283312  0.72903555  0.84727070     0.04100
C4827       C  0.94634440  0.72693064  0.86646309    -0.12000
C4828       C  0.93132297  0.72537376  0.87911211     0.23400
C4829       C  0.91282977  0.72750390  0.87280439    -0.12500
C4830       C  0.90928821  0.72984397  0.85362967     0.04800
C4831       C  0.93492041  0.71858931  0.89828284     0.27200
C4832       C  0.93721302  0.69925431  0.90116952    -0.13200
C4833       C  0.94201746  0.69249026  0.91890288     0.05300
C4834       C  0.94343067  0.70493395  0.93408038    -0.09200
C4835       C  0.94081886  0.72428496  0.93131516     0.06100
C4836       C  0.93678902  0.73114309  0.91332048    -0.13600
Br4837     Br  0.89236347  0.72590414  0.89033227    -0.05600
Br4838     Br  0.96340879  0.73066474  0.82986819     0.00000
Br4839     Br  0.94650450  0.66609077  0.92233468     0.00400
Br4840     Br  0.93396344  0.75761524  0.90912700    -0.04000
Br4841     Br  0.88379233  0.73142724  0.84495044     0.00500
Br4842     Br  0.97167529  0.72509552  0.87547510    -0.03300
Br4843     Br  0.93335231  0.68198065  0.88078936    -0.04100
Br4844     Br  0.94380473  0.74143027  0.95192809    -0.00200
C4845       C  0.02337389  0.82093943  0.00122829     0.01300
C4846       C  0.00842804  0.81667714  0.98900965     0.04100
C4847       C  0.99864613  0.79972133  0.99097914    -0.12000
C4848       C  0.00431599  0.78655411  0.00445714     0.23400
C4849       C  0.01874853  0.79097827  0.01702529    -0.12500
C4850       C  0.02790368  0.80834278  0.01575520     0.04800
C4851       C  0.99672162  0.76730152  0.00364933     0.27200
C4852       C  0.98276556  0.76129986  0.01617816    -0.13200
C4853       C  0.97493268  0.74330123  0.01434878     0.05300
C4854       C  0.98035904  0.73162905  0.99930267    -0.09200
C4855       C  0.99467378  0.73772686  0.98696247     0.06100
C4856       C  0.00316538  0.75522613  0.98956765    -0.13600
Br4857     Br  0.02668785  0.77275521  0.03525084    -0.05600
Br4858     Br  0.00229910  0.83292983  0.96832178     0.00000
Br4859     Br  0.95744019  0.73460648  0.03304404     0.00400
Br4860     Br  0.02356352  0.76299866  0.97353623    -0.04000
Br4861     Br  0.04629072  0.81487339  0.03431050     0.00500
Br4862     Br  0.97808713  0.79388121  0.97447724    -0.03300
Br4863     Br  0.97421398  0.77795707  0.03558496    -0.04100
Br4864     Br  0.00199608  0.72324899  0.96532378    -0.00200
C4865       C  0.93033827  0.57495604  0.18540348     0.01300
C4866       C  0.91633878  0.57714775  0.17173582     0.04100
C4867       C  0.89746208  0.57806453  0.17700445    -0.12000
C4868       C  0.89250243  0.57750466  0.19603015     0.23400
C4869       C  0.90633878  0.57461771  0.20970252    -0.12500
C4870       C  0.92527614  0.57337380  0.20440381     0.04800
C4871       C  0.87342140  0.58337977  0.20145968     0.27200
C4872       C  0.86965208  0.60265112  0.20279322    -0.13200
C4873       C  0.85117586  0.60891413  0.20456080     0.05300
C4874       C  0.83642892  0.59588636  0.20578418    -0.09200
C4875       C  0.84026201  0.57654794  0.20554533     0.06100
C4876       C  0.85876548  0.57028695  0.20313553    -0.13600
Br4877     Br  0.89925156  0.57296523  0.23564279    -0.05600
Br4878     Br  0.92300968  0.58100917  0.14596458     0.00000
Br4879     Br  0.84601220  0.63538524  0.20360106     0.00400
Br4880     Br  0.86404282  0.54392606  0.20157611    -0.04000
Br4881     Br  0.94426017  0.56983831  0.22316287     0.00500
Br4882     Br  0.87829947  0.58109157  0.15824346    -0.03300
Br4883     Br  0.88990061  0.62051212  0.20140612    -0.04100
Br4884     Br  0.82020598  0.55872416  0.20878483    -0.00200
C4885       C  0.99718132  0.54406470  0.21574231     0.01300
C4886       C  0.98440081  0.52990238  0.22115709     0.04100
C4887       C  0.98613601  0.52128191  0.23871141    -0.12000
C4888       C  0.00024423  0.52705240  0.25112398     0.23400
C4889       C  0.01343023  0.54054608  0.24557315    -0.12500
C4890       C  0.01191492  0.54908683  0.22794891     0.04800
C4891       C  0.99967010  0.52058568  0.27073408     0.27200
C4892       C  0.98675174  0.52874987  0.28311136    -0.13200
C4893       C  0.98438044  0.52141422  0.30116630     0.05300
C4894       C  0.99537730  0.50609986  0.30708246    -0.09200
C4895       C  0.00945753  0.49902372  0.29509697     0.06100
C4896       C  0.01128018  0.50598412  0.27680757    -0.13600
Br4897     Br  0.03311688  0.54779839  0.26254706    -0.05600
Br4898     Br  0.96309901  0.52356310  0.20578107     0.00000
Br4899     Br  0.96492003  0.53168427  0.31683009     0.00400
Br4900     Br  0.02913320  0.49508809  0.25976850    -0.04000
Br4901     Br  0.03000842  0.56786531  0.22098785     0.00500
Br4902     Br  0.96854005  0.50219103  0.24635663    -0.03300
Br4903     Br  0.97166316  0.54955813  0.27484699    -0.04100
Br4904     Br  0.02669853  0.48012278  0.30369532    -0.00200
C4905       C  0.96246468  0.65823053  0.03763836     0.01300
C4906       C  0.95020560  0.66148196  0.05308076     0.04100
C4907       C  0.95238159  0.65137945  0.06982612    -0.12000
C4908       C  0.96668901  0.63816860  0.07153461     0.23400
C4909       C  0.97934475  0.63530026  0.05686433    -0.12500
C4910       C  0.97752159  0.64531465  0.04005667     0.04800
C4911       C  0.96851171  0.62704042  0.08882182     0.27200
C4912       C  0.98012192  0.63341626  0.10325867    -0.13200
C4913       C  0.98356993  0.62196238  0.11879561     0.05300
C4914       C  0.97404993  0.60459905  0.12077827    -0.09200
C4915       C  0.96262307  0.59813314  0.10589186     0.06100
C4916       C  0.95991144  0.60940814  0.09002419    -0.13600
Br4917     Br  0.99914598  0.61713014  0.05999243    -0.05600
Br4918     Br  0.93038617  0.67986889  0.05252477     0.00000
Br4919     Br  0.00346762  0.62933096  0.13559416     0.00400
Br4920     Br  0.94454836  0.60075663  0.06956955    -0.04000
Br4921     Br  0.99635317  0.64059630  0.02113339     0.00500
Br4922     Br  0.93568043  0.65532125  0.09073408    -0.03300
Br4923     Br  0.99148241  0.65789767  0.10148456    -0.04100
Br4924     Br  0.95108718  0.57368660  0.10613219    -0.00200
C4925       C  0.17625175  0.61339341  0.05996938     0.01300
C4926       C  0.17835590  0.62560930  0.04449508     0.04100
C4927       C  0.17964342  0.64504057  0.04730857    -0.12000
C4928       C  0.17982692  0.65234826  0.06554606     0.23400
C4929       C  0.17817991  0.64027677  0.08100621    -0.12500
C4930       C  0.17606630  0.62091588  0.07828564     0.04800
C4931       C  0.18249930  0.67267086  0.06866155     0.27200
C4932       C  0.20061539  0.68034912  0.06807346    -0.13200
C4933       C  0.20353166  0.69913205  0.07304562     0.05300
C4934       C  0.18839623  0.71018887  0.07926258    -0.09200
C4935       C  0.17007578  0.70278058  0.07864608     0.06100
C4936       C  0.16715621  0.68406966  0.07327501    -0.13600
Br4937     Br  0.17865601  0.65045142  0.10601802    -0.05600
Br4938     Br  0.18049570  0.61599007  0.01935407     0.00000
Br4939     Br  0.22825912  0.70980582  0.07058137     0.00400
Br4940     Br  0.14221219  0.67371197  0.07287713    -0.04000
Br4941     Br  0.17173888  0.60522329  0.09988888     0.00500
Br4942     Br  0.18089096  0.66184052  0.02620426    -0.03300
Br4943     Br  0.22154514  0.66483715  0.06111725    -0.04100
Br4944     Br  0.14894501  0.71763294  0.08610298    -0.00200
C4945       C  0.29432625  0.53179427  0.97189488     0.01300
C4946       C  0.27764868  0.53689495  0.96232976     0.04100
C4947       C  0.26073675  0.53835602  0.97220337    -0.12000
C4948       C  0.26003238  0.53393890  0.99129373     0.23400
C4949       C  0.27595824  0.52705338  0.00042072    -0.12500
C4950       C  0.29313716  0.52614092  0.99087336     0.04800
C4951       C  0.24287324  0.53807821  0.00201060     0.27200
C4952       C  0.24102308  0.55564964  0.01069017    -0.13200
C4953       C  0.22441464  0.56018541  0.02008761     0.05300
C4954       C  0.20964887  0.54718436  0.02077494    -0.09200
C4955       C  0.21141707  0.52965968  0.01198282     0.06100
C4956       C  0.22809354  0.52506155  0.00265972    -0.13600
Br4957     Br  0.27412864  0.51936880  0.02623193    -0.05600
Br4958     Br  0.27719435  0.54286407  0.93591599     0.00000
Br4959     Br  0.22175808  0.58426893  0.03188229     0.00400
Br4960     Br  0.23088653  0.50096918  0.99090759    -0.04000
Br4961     Br  0.31465602  0.51672475  0.00410285     0.00500
Br4962     Br  0.23848104  0.54744940  0.95990436    -0.03300
Br4963     Br  0.26131237  0.57347093  0.00962763    -0.04100
Br4964     Br  0.19109396  0.51191400  0.01298147    -0.00200
C4965       C  0.11797626  0.56608521  0.08670263     0.01300
C4966       C  0.11051265  0.55078850  0.09666912     0.04100
C4967       C  0.09513634  0.55339906  0.10861009    -0.12000
C4968       C  0.08742520  0.57136638  0.11087061     0.23400
C4969       C  0.09507607  0.58670761  0.10110980    -0.12500
C4970       C  0.11030019  0.58405157  0.08895119     0.04800
C4971       C  0.07031452  0.57373564  0.12228698     0.27200
C4972       C  0.05281229  0.57315270  0.11345663    -0.13200
C4973       C  0.03640288  0.57387690  0.12416106     0.05300
C4974       C  0.03732709  0.57493923  0.14389135    -0.09200
C4975       C  0.05491906  0.57646923  0.15265944     0.06100
C4976       C  0.07140880  0.57581679  0.14183758    -0.13600
Br4977     Br  0.08443609  0.61125062  0.10423909    -0.05600
Br4978     Br  0.12094935  0.52611486  0.09343244     0.00000
Br4979     Br  0.01269650  0.57403458  0.11135503     0.00400
Br4980     Br  0.09558195  0.57740237  0.15363358    -0.04000
Br4981     Br  0.12097628  0.60505808  0.07574737     0.00500
Br4982     Br  0.08419792  0.53228118  0.12143413    -0.03300
Br4983     Br  0.05137854  0.57099020  0.08656550    -0.04100
Br4984     Br  0.05661362  0.57864074  0.17938226    -0.00200
C4985       C  0.83470261  0.34140728  0.93996115     0.01300
C4986       C  0.83176621  0.34635295  0.95878922     0.04100
C4987       C  0.83314722  0.36518728  0.96426085    -0.12000
C4988       C  0.83737016  0.37902778  0.95088040     0.23400
C4989       C  0.84026914  0.37403679  0.93204915    -0.12500
C4990       C  0.83927471  0.35519470  0.92667081     0.04800
C4991       C  0.84033912  0.39863619  0.95672855     0.27200
C4992       C  0.82515017  0.41102848  0.95834752    -0.13200
C4993       C  0.82839007  0.42998100  0.96251385     0.05300
C4994       C  0.84684548  0.43665212  0.96434891    -0.09200
C4995       C  0.86199482  0.42406379  0.96333923     0.06100
C4996       C  0.85868319  0.40505180  0.95978816    -0.13600
Br4997     Br  0.84545187  0.39309663  0.91363121    -0.05600
Br4998     Br  0.82556505  0.32737768  0.97696453     0.00000
Br4999     Br  0.80760520  0.44670464  0.96633137     0.00400
Br5000     Br  0.87933450  0.38775530  0.95837250    -0.04000
Br5001     Br  0.84507727  0.34807146  0.90129622     0.00500
Br5002     Br  0.82917679  0.37214930  0.98999397    -0.03300
Br5003     Br  0.80004585  0.40214131  0.95416266    -0.04100
Br5004     Br  0.88747255  0.43284914  0.96534139    -0.00200
C5005       C  0.81433002  0.50356574  0.99789198     0.01300
C5006       C  0.80194033  0.51815462  0.99314922     0.04100
C5007       C  0.78393317  0.51884538  0.00107757    -0.12000
C5008       C  0.77837087  0.50537766  0.01439376     0.23400
C5009       C  0.79110769  0.49140129  0.01995524    -0.12500
C5010       C  0.80898335  0.49040972  0.01167968     0.04800
C5011       C  0.75908773  0.50575665  0.02237520     0.27200
C5012       C  0.75406540  0.51944939  0.03557563    -0.13200
C5013       C  0.73577156  0.51997435  0.04290018     0.05300
C5014       C  0.72280826  0.50555988  0.03856108    -0.09200
C5015       C  0.72808031  0.49163223  0.02551842     0.06100
C5016       C  0.74578064  0.49228140  0.01684561    -0.13600
Br5017     Br  0.78374018  0.47311909  0.03846357    -0.05600
Br5018     Br  0.80978056  0.53757377  0.97604572     0.00000
Br5019     Br  0.72838283  0.54115543  0.05786158     0.00400
Br5020     Br  0.75195283  0.47459840  0.99739862    -0.04000
Br5021     Br  0.82545592  0.47015633  0.01845111     0.00500
Br5022     Br  0.76655035  0.53778064  0.99299407    -0.03300
Br5023     Br  0.77255962  0.53719203  0.04413821    -0.04100
Br5024     Br  0.71202681  0.47046754  0.02032964    -0.00200
C5025       C  0.87912433  0.54670815  0.96300529     0.01300
C5026       C  0.87544607  0.55943172  0.97755787     0.04100
C5027       C  0.88390712  0.57720948  0.97746566    -0.12000
C5028       C  0.89637445  0.58219760  0.96301253     0.23400
C5029       C  0.89965792  0.56968875  0.94817038    -0.12500
C5030       C  0.89096677  0.55199383  0.94810566     0.04800
C5031       C  0.90717728  0.59990254  0.96440623     0.27200
C5032       C  0.89944723  0.61689865  0.95822989    -0.13200
C5033       C  0.90900628  0.63385727  0.96139133     0.05300
C5034       C  0.92640115  0.63384724  0.97074822    -0.09200
C5035       C  0.93448681  0.61664359  0.97614261     0.06100
C5036       C  0.92488971  0.59976856  0.97294278    -0.13600
Br5037     Br  0.91669097  0.57660620  0.92839857    -0.05600
Br5038     Br  0.85887712  0.55241313  0.99768233     0.00000
Br5039     Br  0.89844817  0.65695854  0.95231902     0.00400
Br5040     Br  0.93575744  0.57633605  0.98072811    -0.04000
Br5041     Br  0.89630422  0.53453991  0.92825155     0.00500
Br5042     Br  0.87888980  0.59461498  0.99742912    -0.03300
Br5043     Br  0.87567469  0.61680127  0.94556424    -0.04100
Br5044     Br  0.95814320  0.61595266  0.98912351    -0.00200
C5045       C  0.08460788  0.34030909  0.19153425     0.01300
C5046       C  0.09883148  0.33484150  0.17886948     0.04100
C5047       C  0.09633289  0.33732863  0.15953075    -0.12000
C5048       C  0.08027938  0.34644785  0.15275951     0.23400
C5049       C  0.06628400  0.35226520  0.16534341    -0.12500
C5050       C  0.06807289  0.34852825  0.18455048     0.04800
C5051       C  0.07813022  0.34993995  0.13241316     0.27200
C5052       C  0.08939395  0.36344578  0.12339388    -0.13200
C5053       C  0.08789572  0.36610103  0.10397588     0.05300
C5054       C  0.07400874  0.35653034  0.09382532    -0.09200
C5055       C  0.06198251  0.34391770  0.10303878     0.06100
C5056       C  0.06470126  0.33986897  0.12206307    -0.13600
Br5057     Br  0.04484337  0.36590546  0.15631689    -0.05600
Br5058     Br  0.12249891  0.32523300  0.18763574     0.00000
Br5059     Br  0.10458595  0.38315671  0.09134015     0.00400
Br5060     Br  0.05024185  0.32030276  0.13385564    -0.04000
Br5061     Br  0.04727184  0.35387063  0.20095563     0.00500
Br5062     Br  0.11504628  0.32836781  0.14221881    -0.03300
Br5063     Br  0.10644088  0.37872249  0.13771847    -0.04100
Br5064     Br  0.04140014  0.33264857  0.08981007    -0.00200
C5065       C  0.03436720  0.32089353  0.03291423     0.01300
C5066       C  0.04008721  0.30429382  0.04200163     0.04100
C5067       C  0.02886153  0.28819978  0.04108935    -0.12000
C5068       C  0.01304901  0.28786776  0.02942476     0.23400
C5069       C  0.00768131  0.30412939  0.01974091    -0.12500
C5070       C  0.01766824  0.32090256  0.02235371     0.04800
C5071       C  0.00201261  0.27038666  0.02778507     0.27200
C5072       C  0.00944826  0.25501547  0.01805125    -0.13200
C5073       C  0.00061136  0.23745766  0.01910530     0.05300
C5074       C  0.98319547  0.23561545  0.02836476    -0.09200
C5075       C  0.97516471  0.25152707  0.03708231     0.06100
C5076       C  0.98494508  0.26859341  0.03738560    -0.13600
Br5077     Br  0.98694948  0.30320782  0.00253155    -0.05600
Br5078     Br  0.06305147  0.30331317  0.05615078     0.00000
Br5079     Br  0.01300115  0.21619150  0.00816169     0.00400
Br5080     Br  0.97554601  0.28931379  0.05193031    -0.04000
Br5081     Br  0.00829385  0.34363049  0.01127802     0.00500
Br5082     Br  0.03475704  0.26667567  0.05631647    -0.03300
Br5083     Br  0.03199157  0.25813498  0.00345784    -0.04100
Br5084     Br  0.95137187  0.25016816  0.04995424    -0.00200
C5085       C  0.10147904  0.41405861  0.04402403     0.01300
C5086       C  0.11733885  0.41675104  0.03234756     0.04100
C5087       C  0.12762301  0.43352874  0.03333744    -0.12000
C5088       C  0.12242930  0.44748444  0.04612780     0.23400
C5089       C  0.10746243  0.44443203  0.05852664    -0.12500
C5090       C  0.09699312  0.42782582  0.05753182     0.04800
C5091       C  0.13151297  0.46609269  0.04561407     0.27200
C5092       C  0.14831341  0.46939802  0.05522428    -0.13200
C5093       C  0.15610856  0.48750186  0.05557300     0.05300
C5094       C  0.14605370  0.50279375  0.04793363    -0.09200
C5095       C  0.12872996  0.49927929  0.03887550     0.06100
C5096       C  0.12231345  0.48087371  0.03661919    -0.13600
Br5097     Br  0.10107180  0.46345350  0.07661024    -0.05600
Br5098     Br  0.12481794  0.39825257  0.01412632     0.00000
Br5099     Br  0.18080119  0.49066273  0.06601171     0.00400
Br5100     Br  0.10063901  0.47573028  0.02132940    -0.04000
Br5101     Br  0.07693995  0.42409894  0.07531491     0.00500
Br5102     Br  0.14839115  0.43792298  0.01661094    -0.03300
Br5103     Br  0.16027226  0.44910034  0.06831868    -0.04100
Br5104     Br  0.11212518  0.51924074  0.03138781    -0.00200
C5105       C  0.18505221  0.44566147  0.82528047     0.01300
C5106       C  0.17775788  0.46389117  0.82677533     0.04100
C5107       C  0.15844162  0.46651704  0.82945785    -0.12000
C5108       C  0.14642603  0.45093280  0.83076853     0.23400
C5109       C  0.15371027  0.43272485  0.82933341    -0.12500
C5110       C  0.17296560  0.43006925  0.82654874     0.04800
C5111       C  0.12611238  0.45350241  0.83390682     0.27200
C5112       C  0.11885011  0.45274620  0.85219415    -0.13200
C5113       C  0.09944402  0.45368593  0.85513399     0.05300
C5114       C  0.08722749  0.45534643  0.83975156    -0.09200
C5115       C  0.09453112  0.45649299  0.82147750     0.06100
C5116       C  0.11396883  0.45564122  0.81857508    -0.13600
Br5117     Br  0.13719075  0.41141864  0.83138137    -0.05600
Br5118     Br  0.19411631  0.48525569  0.82441517     0.00000
Br5119     Br  0.08962066  0.45181823  0.88023156     0.00400
Br5120     Br  0.12407980  0.45739875  0.79363285    -0.04000
Br5121     Br  0.18275370  0.40495744  0.82527238     0.00500
Br5122     Br  0.14832495  0.49140384  0.83128647    -0.03300
Br5123     Br  0.13558916  0.45015095  0.87316169    -0.04100
Br5124     Br  0.07796559  0.45988553  0.80049327    -0.00200
C5125       C  0.02229388  0.49035712  0.80318028     0.01300
C5126       C  0.03480840  0.50496973  0.79850085     0.04100
C5127       C  0.03280886  0.51462637  0.78144614    -0.12000
C5128       C  0.01860012  0.50952235  0.76879966     0.23400
C5129       C  0.00558668  0.49559906  0.77380171    -0.12500
C5130       C  0.00732588  0.48612489  0.79096956     0.04800
C5131       C  0.01858585  0.51746058  0.74956738     0.27200
C5132       C  0.00663982  0.53229609  0.74476020    -0.13200
C5133       C  0.00724441  0.54001122  0.72661664     0.05300
C5134       C  0.02064400  0.53366558  0.71344740    -0.09200
C5135       C  0.03251523  0.51860461  0.71840038     0.06100
C5136       C  0.03102898  0.51024005  0.73615820    -0.13600
Br5137     Br  0.98572198  0.48912696  0.75675929    -0.05600
Br5138     Br  0.05572580  0.51084900  0.81449470     0.00000
Br5139     Br  0.98912606  0.55881950  0.71987598     0.00400
Br5140     Br  0.04638052  0.48895210  0.74244878    -0.04000
Br5141     Br  0.98889347  0.46751557  0.79773184     0.00500
Br5142     Br  0.04995171  0.53448785  0.77493204    -0.03300
Br5143     Br  0.98983412  0.54234156  0.76331156    -0.04100
Br5144     Br  0.05217323  0.51016841  0.70190087    -0.00200
C5145       C  0.97546092  0.45843558  0.86490443     0.01300
C5146       C  0.96841476  0.44265471  0.87450181     0.04100
C5147       C  0.95313150  0.44464685  0.88674608    -0.12000
C5148       C  0.94461463  0.46225293  0.88895773     0.23400
C5149       C  0.95022438  0.47738105  0.87764316    -0.12500
C5150       C  0.96563737  0.47547904  0.86563990     0.04800
C5151       C  0.93058060  0.46538491  0.90387942     0.27200
C5152       C  0.91182170  0.46033317  0.90104510    -0.13200
C5153       C  0.89828003  0.46488382  0.91453454     0.05300
C5154       C  0.90330350  0.47538155  0.93059317    -0.09200
C5155       C  0.92233261  0.47970945  0.93375789     0.06100
C5156       C  0.93591895  0.47452997  0.92049251    -0.13600
Br5157     Br  0.93742480  0.50103783  0.87950401    -0.05600
Br5158     Br  0.98052340  0.41866694  0.87224254     0.00000
Br5159     Br  0.87303280  0.45579736  0.91108557     0.00400
Br5160     Br  0.96192407  0.48053562  0.92465630    -0.04000
Br5161     Br  0.97361209  0.49635483  0.85045053     0.00500
Br5162     Br  0.94469834  0.42363296  0.90146072    -0.03300
Br5163     Br  0.90464198  0.44776323  0.87826541    -0.04100
Br5164     Br  0.93000136  0.49368008  0.95553464    -0.00200
C5165       C  0.03775665  0.42371060  0.89610880     0.01300
C5166       C  0.02698237  0.42706502  0.91231452     0.04100
C5167       C  0.03000781  0.41640228  0.92856564    -0.12000
C5168       C  0.04402840  0.40259895  0.92882838     0.23400
C5169       C  0.05388085  0.39836207  0.91232412    -0.12500
C5170       C  0.05072949  0.40884228  0.89596405     0.04800
C5171       C  0.05022761  0.39466434  0.94697549     0.27200
C5172       C  0.06168410  0.40562986  0.95867643    -0.13200
C5173       C  0.06651472  0.39914196  0.97655171     0.05300
C5174       C  0.06074699  0.38126260  0.98246248    -0.09200
C5175       C  0.05059995  0.36967051  0.97021394     0.06100
C5176       C  0.04477352  0.37658148  0.95271797    -0.13600
Br5177     Br  0.07229653  0.37870339  0.91244957    -0.05600
Br5178     Br  0.00787117  0.44609030  0.91229819     0.00000
Br5179     Br  0.08079084  0.41491778  0.99307344     0.00400
Br5180     Br  0.02869862  0.36168021  0.93705428    -0.04000
Br5181     Br  0.06526931  0.40358004  0.87384735     0.00500
Br5182     Br  0.01533538  0.42095812  0.95075897    -0.03300
Br5183     Br  0.07050111  0.42975812  0.95025213    -0.04100
Br5184     Br  0.04483437  0.34436576  0.97746061    -0.00200
loop_ 
_geom_bond_atom_site_label_1 
_geom_bond_atom_site_label_2 
_geom_bond_distance 
_geom_bond_site_symmetry_2 
_ccdc_geom_bond_type 
O1           Cu9   2.019       .  S
O1           C11   1.279   1_455  A
O2           Cu9   2.019       .  S
O2           C12   1.279       .  A
O3           Cu9   2.005       .  S
O3           C13   1.276       .  A
O4           Cu9   2.003       .  S
O4           C14   1.277       .  A
O5          Cu10   2.022       .  S
O5           C14   1.279       .  A
O6          Cu10   2.019       .  S
O6           C13   1.280       .  A
O7          Cu10   1.994       .  S
O7           C12   1.275       .  A
O8          Cu10   1.983       .  S
O8           C11   1.275   1_455  A
Cu9         Cu10   2.374       .  S
C11        C5145   1.474       .  S
C12        C5114   1.474       .  S
C13        C5165   1.481       .  S
C14        C5125   1.486       .  S
O15         Cu23   2.000       .  S
O15          C25   1.277       .  A
O16         Cu23   1.999       .  S
O16          C26   1.275       .  A
O17         Cu23   2.018       .  S
O17          C27   1.279       .  A
O18         Cu23   2.026       .  S
O18          C28   1.279       .  A
O19         Cu24   1.998       .  S
O19          C28   1.275       .  A
O20         Cu24   2.001       .  S
O20          C27   1.275       .  A
O21         Cu24   2.010       .  S
O21          C26   1.279       .  A
O22         Cu24   2.012       .  S
O22          C25   1.278       .  A
Cu23        Cu24   2.373       .  S
C25        C5065   1.480       .  S
C26        C5085   1.487       .  S
C27        C5054   1.471       .  S
C28        C5174   1.473   1_554  S
O29         Cu37   1.986       .  S
O29          C39   1.275       .  A
O30         Cu37   1.994       .  S
O30          C40   1.276       .  A
O31         Cu37   2.014       .  S
O31          C41   1.278       .  A
O32         Cu37   2.008       .  S
O32          C42   1.278       .  A
O33         Cu38   1.995       .  S
O33          C42   1.275       .  A
O34         Cu38   2.009       .  S
O34          C41   1.277       .  A
O35         Cu38   2.028       .  S
O35          C40   1.280       .  A
O36         Cu38   2.025       .  S
O36          C39   1.280       .  A
Cu37        Cu38   2.372       .  S
C39        C5154   1.485       .  S
C40        C5005   1.485       .  S
C41        C5025   1.476       .  S
C42        C4994   1.472       .  S
O43         Cu51   2.017       .  S
O43          C53   1.279       .  A
O44         Cu51   2.014       .  S
O44          C54   1.278       .  A
O45         Cu51   1.991       .  S
O45          C55   1.275       .  A
O46         Cu51   1.994       .  S
O46          C56   1.275       .  A
O47         Cu52   2.017       .  S
O47          C56   1.279       .  A
O48         Cu52   2.015       .  S
O48          C55   1.278       .  A
O49         Cu52   1.993       .  S
O49          C54   1.274       .  A
O50         Cu52   1.989       .  S
O50          C53   1.274       .  A
Cu51        Cu52   2.370       .  S
C53        C4965   1.468       .  S
C54        C4954   1.466       .  S
C55        C5094   1.490       .  S
C56        C4925   1.485       .  S
O57         Cu65   2.005       .  S
O57          C67   1.276       .  A
O58         Cu65   1.991   1_455  S
O58          C68   1.275       .  A
O59         Cu65   2.007       .  S
O59          C69   1.278       .  A
O60         Cu65   2.005       .  S
O60          C70   1.277       .  A
O61         Cu66   1.991       .  S
O61          C70   1.275       .  A
O62         Cu66   1.997       .  S
O62          C69   1.276       .  A
O63         Cu66   2.037   1_455  S
O63          C68   1.281       .  A
O64         Cu66   2.020       .  S
O64          C67   1.279       .  A
Cu65        Cu66   2.369       .  S
C67        C4865   1.477       .  S
C68        C4974   1.482       .  S
C69        C4885   1.481       .  S
C70        C4914   1.489       .  S
O71         Cu79   1.993       .  S
O71          C81   1.275       .  A
O72         Cu79   2.004       .  S
O72          C82   1.277       .  A
O73         Cu79   1.998       .  S
O73          C83   1.276       .  A
O74         Cu79   1.991   1_554  S
O74          C84   1.272       .  A
O75         Cu80   2.008   1_554  S
O75          C84   1.277       .  A
O76         Cu80   2.002       .  S
O76          C83   1.277       .  A
O77         Cu80   2.014       .  S
O77          C82   1.278       .  A
O78         Cu80   2.012       .  S
O78          C81   1.278       .  A
Cu79        Cu80   2.364       .  S
C81        C4854   1.485       .  S
C82        C5034   1.483       .  S
C83        C4834   1.469       .  S
C84        C4905   1.503       .  S
O85         Cu93   1.997       .  S
O85          C95   1.276       .  A
O86         Cu93   1.990       .  S
O86          C96   1.276       .  A
O87         Cu93   2.003       .  S
O87          C97   1.276       .  A
O88         Cu93   2.007       .  S
O88          C98   1.277       .  A
O89         Cu94   2.008       .  S
O89          C98   1.278       .  A
O90         Cu94   2.009       .  S
O90          C97   1.278       .  A
O91         Cu94   2.006       .  S
O91          C96   1.277       .  A
O92         Cu94   1.993       .  S
O92          C95   1.275       .  A
Cu93        Cu94   2.372       .  S
C95        C4745   1.467       .  S
C96        C4794   1.468       .  S
C97        C4765   1.492       .  S
C98        C4805   1.478       .  S
O99        Cu107   2.017       .  S
O99         C109   1.279       .  A
O100       Cu107   2.018       .  S
O100        C110   1.279       .  A
O101       Cu107   1.991       .  S
O101        C111   1.275       .  A
O102       Cu107   1.996       .  S
O102        C112   1.276       .  A
O103       Cu108   2.008       .  S
O103        C112   1.277       .  A
O104       Cu108   2.002       .  S
O104        C111   1.278       .  A
O105       Cu108   2.002       .  S
O105        C110   1.276       .  A
O106       Cu108   1.994       .  S
O106        C109   1.275       .  A
Cu107      Cu108   2.373       .  S
C109       C4725   1.475       .  S
C110       C4685   1.475       .  S
C111       C4785   1.474       .  S
C112       C4714   1.483       .  S
O113       Cu121   1.997       .  S
O113        C123   1.275       .  A
O114       Cu121   1.989   1_455  S
O114        C124   1.275       .  A
O115       Cu121   2.012       .  S
O115        C125   1.278       .  A
O116       Cu121   2.013       .  S
O116        C126   1.279       .  A
O117       Cu122   1.987       .  S
O117        C126   1.275       .  A
O118       Cu122   1.985       .  S
O118        C125   1.275       .  A
O119       Cu122   2.022   1_455  S
O119        C124   1.279       .  A
O120       Cu122   2.018       .  S
O120        C123   1.279       .  A
Cu121      Cu122   2.374       .  S
C123       C4645   1.472       .  S
C124       C4674   1.475       .  S
C125       C4894   1.480       .  S
C126       C4734   1.475       .  S
O127       Cu135   2.005       .  S
O127        C137   1.277       .  A
O128       Cu135   2.010       .  S
O128        C138   1.278       .  A
O129       Cu135   1.982       .  S
O129        C139   1.275       .  A
O130       Cu135   1.977       .  S
O130        C140   1.274       .  A
O131       Cu136   1.995       .  S
O131        C140   1.276       .  A
O132       Cu136   2.000       .  S
O132        C139   1.276       .  A
O133       Cu136   2.010       .  S
O133        C138   1.278       .  A
O134       Cu136   2.003       .  S
O134        C137   1.277       .  A
Cu135      Cu136   2.375       .  S
C137       C4605   1.477       .  S
C138       C4665   1.482       .  S
C139       C4585   1.465       .  S
C140       C4634   1.464       .  S
O141       Cu149   2.017       .  S
O141        C151   1.279   1_455  A
O142       Cu149   2.005       .  S
O142        C152   1.277       .  A
O143       Cu149   2.001       .  S
O143        C153   1.277       .  A
O144       Cu149   2.003       .  S
O144        C154   1.276       .  A
O145       Cu150   2.023       .  S
O145        C154   1.280       .  A
O146       Cu150   2.026       .  S
O146        C153   1.280       .  A
O147       Cu150   2.001       .  S
O147        C152   1.276       .  A
O148       Cu150   2.000       .  S
O148        C151   1.276   1_455  A
Cu149      Cu150   2.372       .  S
C151       C4814   1.476       .  S
C152       C4554   1.470       .  S
C153       C4574   1.485       .  S
C154       C5134   1.493       .  S
O155       Cu163   2.007       .  S
O155        C165   1.277       .  A
O156       Cu163   2.014       .  S
O156        C166   1.278       .  A
O157       Cu163   2.009       .  S
O157        C167   1.278       .  A
O158       Cu163   1.999       .  S
O158        C168   1.276       .  A
O159       Cu164   1.974       .  S
O159        C168   1.274       .  A
O160       Cu164   1.991       .  S
O160        C167   1.276       .  A
O161       Cu164   2.022       .  S
O161        C166   1.279       .  A
O162       Cu164   2.013       .  S
O162        C165   1.278       .  A
Cu163      Cu164   2.372       .  S
C165       C4514   1.478       .  S
C166       C4565   1.484       .  S
C167       C4525   1.481       .  S
C168       C4625   1.469       .  S
O169       Cu177   2.014       .  S
O169        C179   1.278       .  A
O170       Cu177   2.012       .  S
O170        C180   1.278       .  A
O171       Cu177   2.000       .  S
O171        C181   1.276       .  A
O172       Cu177   2.000       .  S
O172        C182   1.277       .  A
O173       Cu178   1.992       .  S
O173        C182   1.276       .  A
O174       Cu178   1.993       .  S
O174        C181   1.276       .  A
O175       Cu178   2.014       .  S
O175        C180   1.278       .  A
O176       Cu178   2.019       .  S
O176        C179   1.279       .  A
Cu177      Cu178   2.374       .  S
C179       C4485   1.488       .  S
C180       C4454   1.483       .  S
C181       C4465   1.466       .  S
C182       C4425   1.468       .  S
O183       Cu191   2.019       .  S
O183        C193   1.280       .  A
O184       Cu191   2.015       .  S
O184        C194   1.279       .  A
O185       Cu191   1.989       .  S
O185        C195   1.273       .  A
O186       Cu191   1.999       .  S
O186        C196   1.276       .  A
O187       Cu192   2.018       .  S
O187        C196   1.278       .  A
O188       Cu192   2.036       .  S
O188        C195   1.282       .  A
O189       Cu192   1.975       .  S
O189        C194   1.273       .  A
O190       Cu192   1.984       .  S
O190        C193   1.272       .  A
Cu191      Cu192   2.370       .  S
C193       C4945   1.490       .  S
C194       C4474   1.476       .  S
C195       C4385   1.476       .  S
C196       C4405   1.474       .  S
O197       Cu205   1.991   1_554  S
O197        C207   1.275       .  A
O198       Cu205   1.996       .  S
O198        C208   1.275       .  A
O199       Cu205   2.019       .  S
O199        C209   1.279       .  A
O200       Cu205   2.020       .  S
O200        C210   1.279       .  A
O201       Cu206   2.004       .  S
O201        C210   1.277       .  A
O202       Cu206   1.999       .  S
O202        C209   1.276       .  A
O203       Cu206   2.002       .  S
O203        C208   1.277       .  A
O204       Cu206   2.015   1_554  S
O204        C207   1.278       .  A
Cu205      Cu206   2.371       .  S
C207       C4365   1.468       .  S
C208       C4325   1.468       .  S
C209       C4414   1.482       .  S
C210       C4345   1.498   1_556  S
O211       Cu219   2.020       .  S
O211        C221   1.280       .  A
O212       Cu219   2.023       .  S
O212        C222   1.279       .  A
O213       Cu219   2.000       .  S
O213        C223   1.276       .  A
O214       Cu219   2.000       .  S
O214        C224   1.276       .  A
O215       Cu220   2.024       .  S
O215        C224   1.280       .  A
O216       Cu220   2.027       .  S
O216        C223   1.280       .  A
O217       Cu220   1.993       .  S
O217        C222   1.276       .  A
O218       Cu220   1.990       .  S
O218        C221   1.275       .  A
Cu219      Cu220   2.374       .  S
C221       C4374   1.477       .  S
C222       C4285   1.481       .  S
C223       C4305   1.479       .  S
C224       C4265   1.479       .  S
O225       Cu233   2.028       .  S
O225        C235   1.280       .  A
O226       Cu233   2.030       .  S
O226        C236   1.280       .  A
O227       Cu233   2.007       .  S
O227        C237   1.277   1_554  A
O228       Cu233   2.008       .  S
O228        C238   1.277       .  A
O229       Cu234   2.006       .  S
O229        C238   1.278       .  A
O230       Cu234   2.024   1_556  S
O230        C237   1.279       .  A
O231       Cu234   2.012       .  S
O231        C236   1.277       .  A
O232       Cu234   2.006       .  S
O232        C235   1.277       .  A
Cu233      Cu234   2.368       .  S
C235       C4254   1.483       .  S
C236       C4225   1.504       .  S
C237       C4494   1.485       .  S
C238       C4214   1.478       .  S
O239       Cu247   1.995       .  S
O239        C249   1.275       .  A
O240       Cu247   1.997       .  S
O240        C250   1.275       .  A
O241       Cu247   2.019       .  S
O241        C251   1.284       .  A
O242       Cu247   2.017       .  S
O242        C252   1.280       .  A
O243       Cu248   2.009       .  S
O243        C252   1.276       .  A
O244       Cu248   2.015       .  S
O244        C251   1.273       .  A
O245       Cu248   2.031       .  S
O245        C250   1.281       .  A
O246       Cu248   2.026       .  S
O246        C249   1.279       .  A
Cu247      Cu248   2.370       .  S
C249       C4194   1.473       .  S
C250       C4245   1.479       .  S
C251       C5014   1.495       .  S
C252       C4314   1.490       .  S
O253       Cu261   1.999       .  S
O253        C263   1.277       .  A
O254       Cu261   1.995       .  S
O254        C264   1.276       .  A
O255       Cu261   2.014       .  S
O255        C265   1.279       .  A
O256       Cu261   2.020       .  S
O256        C266   1.279       .  A
O257       Cu262   1.999       .  S
O257        C266   1.277       .  A
O258       Cu262   1.999       .  S
O258        C265   1.276       .  A
O259       Cu262   2.004       .  S
O259        C264   1.277       .  A
O260       Cu262   2.007       .  S
O260        C263   1.277       .  A
Cu261      Cu262   2.375       .  S
C263       C4125   1.475       .  S
C264       C4165   1.468       .  S
C265       C4114   1.477       .  S
C266       C4154   1.480       .  S
O267       Cu275   2.017       .  S
O267        C277   1.279       .  A
O268       Cu275   2.021       .  S
O268        C278   1.279       .  A
O269       Cu275   1.991       .  S
O269        C279   1.275       .  A
O270       Cu275   1.992       .  S
O270        C280   1.275       .  A
O271       Cu276   2.018       .  S
O271        C280   1.279       .  A
O272       Cu276   2.006       .  S
O272        C279   1.278       .  A
O273       Cu276   1.997       .  S
O273        C278   1.277       .  A
O274       Cu276   2.000       .  S
O274        C277   1.276       .  A
Cu275      Cu276   2.372       .  S
C277       C4294   1.489       .  S
C278       C4145   1.483       .  S
C279       C4065   1.468       .  S
C280       C4085   1.474       .  S
O281       Cu289   1.992       .  S
O281        C291   1.276       .  A
O282       Cu289   1.993       .  S
O282        C292   1.276       .  A
O283       Cu289   1.999       .  S
O283        C293   1.277       .  A
O284       Cu289   2.004       .  S
O284        C294   1.277       .  A
O285       Cu290   1.997       .  S
O285        C294   1.276       .  A
O286       Cu290   1.996       .  S
O286        C293   1.276       .  A
O287       Cu290   2.015       .  S
O287        C292   1.279       .  A
O288       Cu290   2.012       .  S
O288        C291   1.278       .  A
Cu289      Cu290   2.375       .  S
C291       C4774   1.479       .  S
C292       C4094   1.477       .  S
C293       C4025   1.469       .  S
C294       C4054   1.468       .  S
O295       Cu303   1.995       .  S
O295        C305   1.276       .  A
O296       Cu303   1.999       .  S
O296        C306   1.277       .  A
O297       Cu303   1.985       .  S
O297        C307   1.274       .  A
O298       Cu303   1.982       .  S
O298        C308   1.275       .  A
O299       Cu304   2.001       .  S
O299        C308   1.276       .  A
O300       Cu304   2.004       .  S
O300        C307   1.278       .  A
O301       Cu304   1.999       .  S
O301        C306   1.276       .  A
O302       Cu304   1.993       .  S
O302        C305   1.276       .  A
Cu303      Cu304   2.376       .  S
C305       C3985   1.468       .  S
C306       C4045   1.478       .  S
C307       C3974   1.464       .  S
C308       C4014   1.465       .  S
O309       Cu317   1.985       .  S
O309        C319   1.274       .  A
O310       Cu317   1.992       .  S
O310        C320   1.275       .  A
O311       Cu317   2.010       .  S
O311        C321   1.277       .  A
O312       Cu317   2.006       .  S
O312        C322   1.278       .  A
O313       Cu318   2.004       .  S
O313        C322   1.276       .  A
O314       Cu318   2.004       .  S
O314        C321   1.274       .  A
O315       Cu318   2.022       .  S
O315        C320   1.279       .  A
O316       Cu318   2.033       .  S
O316        C319   1.281       .  A
Cu317      Cu318   2.364       .  S
C319       C3934   1.482       .  S
C320       C3945   1.477       .  S
C321       C4445   1.509       .  S
C322       C4005   1.484       .  S
O323       Cu331   2.008       .  S
O323        C333   1.276       .  A
O324       Cu331   2.001       .  S
O324        C334   1.277       .  A
O325       Cu331   2.005       .  S
O325        C335   1.278       .  A
O326       Cu331   2.005       .  S
O326        C336   1.277       .  A
O327       Cu332   2.003       .  S
O327        C336   1.276       .  A
O328       Cu332   2.007       .  S
O328        C335   1.277       .  A
O329       Cu332   2.000       .  S
O329        C334   1.276       .  A
O330       Cu332   1.993       .  S
O330        C333   1.275       .  A
Cu331      Cu332   2.371       .  S
C333       C4174   1.464       .  S
C334       C3905   1.466       .  S
C335       C3954   1.486       .  S
C336       C4614   1.490       .  S
O337       Cu345   1.996       .  S
O337        C347   1.273       .  A
O338       Cu345   1.986       .  S
O338        C348   1.275       .  A
O339       Cu345   2.005       .  S
O339        C349   1.276       .  A
O340       Cu345   2.022       .  S
O340        C350   1.279       .  A
O341       Cu346   2.001       .  S
O341        C350   1.276       .  A
O342       Cu346   2.007       .  S
O342        C349   1.277       .  A
O343       Cu346   2.020       .  S
O343        C348   1.279       .  A
O344       Cu346   2.004       .  S
O344        C347   1.278       .  A
Cu345      Cu346   2.365       .  S
C347       C3845   1.495       .  S
C348       C3874   1.471       .  S
C349       C4134   1.490       .  S
C350       C3894   1.476       .  S
O351       Cu359   2.019       .  S
O351        C361   1.279       .  A
O352       Cu359   2.019       .  S
O352        C362   1.279       .  A
O353       Cu359   1.996       .  S
O353        C363   1.276       .  A
O354       Cu359   1.994       .  S
O354        C364   1.276       .  A
O355       Cu360   2.001       .  S
O355        C364   1.277       .  A
O356       Cu360   2.004       .  S
O356        C363   1.278       .  A
O357       Cu360   1.991       .  S
O357        C362   1.275       .  A
O358       Cu360   1.993       .  S
O358        C361   1.275       .  A
Cu359      Cu360   2.375       .  S
C361       C3825   1.471       .  S
C362       C3794   1.470       .  S
C363       C3865   1.478       .  S
C364       C3805   1.474       .  S
O365       Cu373   2.008       .  S
O365        C375   1.277       .  A
O366       Cu373   2.006       .  S
O366        C376   1.277       .  A
O367       Cu373   1.995       .  S
O367        C377   1.276       .  A
O368       Cu373   1.998       .  S
O368        C378   1.276       .  A
O369       Cu374   1.991       .  S
O369        C378   1.276       .  A
O370       Cu374   1.991       .  S
O370        C377   1.276       .  A
O371       Cu374   2.000       .  S
O371        C376   1.276       .  A
O372       Cu374   1.990       .  S
O372        C375   1.275       .  A
Cu373      Cu374   2.373       .  S
C375       C3745   1.465       .  S
C376       C3734   1.468       .  S
C377       C3765   1.475       .  S
C378       C3994   1.481       .  S
O379       Cu387   2.001       .  S
O379        C389   1.277       .  A
O380       Cu387   1.999       .  S
O380        C390   1.276       .  A
O381       Cu387   2.010       .  S
O381        C391   1.278       .  A
O382       Cu387   2.006   1_545  S
O382        C392   1.278       .  A
O383       Cu388   1.977   1_545  S
O383        C392   1.273       .  A
O384       Cu388   1.983       .  S
O384        C391   1.274       .  A
O385       Cu388   2.018       .  S
O385        C390   1.280       .  A
O386       Cu388   2.019       .  S
O386        C389   1.279       .  A
Cu387      Cu388   2.374       .  S
C389       C3714   1.486   1_565  S
C390       C3834   1.483       .  S
C391       C3685   1.466       .  S
C392       C3774   1.463       .  S
O393       Cu401   1.993       .  S
O393        C403   1.275       .  A
O394       Cu401   1.984       .  S
O394        C404   1.273       .  A
O395       Cu401   2.029       .  S
O395        C405   1.281       .  A
O396       Cu401   2.037       .  S
O396        C406   1.282       .  A
O397       Cu402   1.964       .  S
O397        C406   1.268       .  A
O398       Cu402   1.974       .  S
O398        C405   1.272       .  A
O399       Cu402   2.028       .  S
O399        C404   1.281       .  A
O400       Cu402   2.013       .  S
O400        C403   1.278       .  A
Cu401      Cu402   2.367       .  S
C403       C3654   1.490       .  S
C404       C3754   1.476       .  S
C405       C3634   1.470       .  S
C406       C3665   1.493       .  S
O407       Cu415   2.017       .  S
O407        C417   1.280       .  A
O408       Cu415   2.016       .  S
O408        C418   1.279       .  A
O409       Cu415   1.987       .  S
O409        C419   1.275       .  A
O410       Cu415   1.998       .  S
O410        C420   1.275       .  A
O411       Cu416   2.027       .  S
O411        C420   1.280       .  A
O412       Cu416   2.023       .  S
O412        C419   1.279       .  A
O413       Cu416   1.988       .  S
O413        C418   1.274       .  A
O414       Cu416   1.992       .  S
O414        C417   1.275       .  A
Cu415      Cu416   2.372       .  S
C417       C3605   1.483       .  S
C418       C3674   1.481       .  S
C419       C3585   1.473       .  S
C420       C3885   1.476   1_545  S
O421       Cu429   2.024       .  S
O421        C431   1.280       .  A
O422       Cu429   2.026       .  S
O422        C432   1.280       .  A
O423       Cu429   1.996       .  S
O423        C433   1.276       .  A
O424       Cu429   1.983       .  S
O424        C434   1.274       .  A
O425       Cu430   2.000       .  S
O425        C434   1.277       .  A
O426       Cu430   2.009       .  S
O426        C433   1.278       .  A
O427       Cu430   2.003       .  S
O427        C432   1.277       .  A
O428       Cu430   1.992       .  S
O428        C431   1.275       .  A
Cu429      Cu430   2.372       .  S
C431       C3565   1.482       .  S
C432       C4234   1.485       .  S
C433       C3545   1.475   1_554  S
C434       C3525   1.472       .  S
O435       Cu443   1.999       .  S
O435        C445   1.276       .  A
O436       Cu443   2.002       .  S
O436        C446   1.277       .  A
O437       Cu443   2.014       .  S
O437        C447   1.279       .  A
O438       Cu443   2.009       .  S
O438        C448   1.278       .  A
O439       Cu444   1.991       .  S
O439        C448   1.275       .  A
O440       Cu444   1.997       .  S
O440        C447   1.276       .  A
O441       Cu444   2.016       .  S
O441        C446   1.279       .  A
O442       Cu444   2.015       .  S
O442        C445   1.279       .  A
Cu443      Cu444   2.373       .  S
C445       C3505   1.483       .  S
C446       C3485   1.485       .  S
C447       C3574   1.476   1_545  S
C448       C3474   1.469       .  S
O449       Cu457   2.002       .  S
O449        C459   1.277   1_565  A
O450       Cu457   1.998       .  S
O450        C460   1.277       .  A
O451       Cu457   2.001       .  S
O451        C461   1.277       .  A
O452       Cu457   2.008       .  S
O452        C462   1.276       .  A
O453       Cu458   2.007       .  S
O453        C462   1.277       .  A
O454       Cu458   2.003       .  S
O454        C461   1.277       .  A
O455       Cu458   2.009       .  S
O455        C460   1.277       .  A
O456       Cu458   2.008   1_545  S
O456        C459   1.277       .  A
Cu457      Cu458   2.373       .  S
C459       C3645   1.482       .  S
C460       C3554   1.484       .  S
C461       C3434   1.471       .  S
C462       C3445   1.470       .  S
O463       Cu471   2.004       .  S
O463        C473   1.277       .  A
O464       Cu471   2.008       .  S
O464        C474   1.276       .  A
O465       Cu471   2.005       .  S
O465        C475   1.278       .  A
O466       Cu471   2.004       .  S
O466        C476   1.278       .  A
O467       Cu472   1.999       .  S
O467        C476   1.276       .  A
O468       Cu472   1.998       .  S
O468        C475   1.275       .  A
O469       Cu472   2.004       .  S
O469        C474   1.277       .  A
O470       Cu472   2.015       .  S
O470        C473   1.278       .  A
Cu471      Cu472   2.372       .  S
C473       C3385   1.477       .  S
C474       C3514   1.470       .  S
C475       C3814   1.487       .  S
C476       C3414   1.479       .  S
O477       Cu485   1.996   1_556  S
O477        C487   1.276       .  A
O478       Cu485   2.009       .  S
O478        C488   1.277       .  A
O479       Cu485   2.020       .  S
O479        C489   1.279       .  A
O480       Cu485   2.017   1_556  S
O480        C490   1.279       .  A
O481       Cu486   1.991       .  S
O481        C490   1.275       .  A
O482       Cu486   1.993   1_554  S
O482        C489   1.276       .  A
O483       Cu486   2.021       .  S
O483        C488   1.280   1_556  A
O484       Cu486   2.020       .  S
O484        C487   1.279       .  A
Cu485      Cu486   2.373   1_554  S
C487       C3374   1.477       .  S
C488       C4354   1.483       .  S
C489       C3405   1.479       .  S
C490       C3345   1.480       .  S
O491       Cu499   2.010   1_545  S
O491        C501   1.277       .  A
O492       Cu499   2.007       .  S
O492        C502   1.278       .  A
O493       Cu499   1.996       .  S
O493        C503   1.277       .  A
O494       Cu499   2.006   1_545  S
O494        C504   1.277       .  A
O495       Cu500   2.010   1_554  S
O495        C504   1.278   1_564  A
O496       Cu500   2.012       .  S
O496        C503   1.277       .  A
O497       Cu500   2.005       .  S
O497        C502   1.277       .  A
O498       Cu500   2.007   1_545  S
O498        C501   1.278       .  A
Cu499      Cu500   2.375       .  S
C501       C3365   1.474       .  S
C502       C3314   1.478       .  S
C503       C3454   1.475       .  S
C504       C3325   1.477   1_556  S
O505       Cu513   2.005       .  S
O505        C515   1.277   1_554  A
O506       Cu513   1.997       .  S
O506        C516   1.274       .  A
O507       Cu513   2.023       .  S
O507        C517   1.280       .  A
O508       Cu513   2.020       .  S
O508        C518   1.280       .  A
O509       Cu514   1.993       .  S
O509        C518   1.275       .  A
O510       Cu514   1.987       .  S
O510        C517   1.273       .  A
O511       Cu514   2.029       .  S
O511        C516   1.281       .  A
O512       Cu514   2.012       .  S
O512        C515   1.277   1_554  A
Cu513      Cu514   2.371       .  S
C515       C3265   1.470       .  S
C516       C3245   1.473       .  S
C517       C3294   1.492       .  S
C518       C5074   1.486       .  S
O519       Cu527   2.019       .  S
O519        C529   1.279       .  A
O520       Cu527   2.014   1_545  S
O520        C530   1.277       .  A
O521       Cu527   1.979   1_545  S
O521        C531   1.274       .  A
O522       Cu527   1.984       .  S
O522        C532   1.274       .  A
O523       Cu528   1.998   1_565  S
O523        C532   1.277       .  A
O524       Cu528   2.020       .  S
O524        C531   1.279       .  A
O525       Cu528   1.997       .  S
O525        C530   1.275       .  A
O526       Cu528   2.000   1_565  S
O526        C529   1.276       .  A
Cu527      Cu528   2.368   1_565  S
C529       C3225   1.473       .  S
C530       C3334   1.501       .  S
C531       C3285   1.474       .  S
C532       C3205   1.467       .  S
O533       Cu541   1.984       .  S
O533        C543   1.274       .  A
O534       Cu541   1.992       .  S
O534        C544   1.274   1_455  A
O535       Cu541   2.011       .  S
O535        C545   1.278       .  A
O536       Cu541   2.005       .  S
O536        C546   1.279       .  A
O537       Cu542   1.993       .  S
O537        C546   1.274       .  A
O538       Cu542   1.995       .  S
O538        C545   1.276       .  A
O539       Cu542   2.033       .  S
O539        C544   1.280   1_455  A
O540       Cu542   2.019       .  S
O540        C543   1.279       .  A
Cu541      Cu542   2.375       .  S
C543       C3145   1.472       .  S
C544       C3234   1.474       .  S
C545       C3174   1.473       .  S
C546       C3185   1.479       .  S
O547       Cu555   2.004       .  S
O547        C557   1.277       .  A
O548       Cu555   2.001   1_554  S
O548        C558   1.275       .  A
O549       Cu555   2.009       .  S
O549        C559   1.278       .  A
O550       Cu555   2.002       .  S
O550        C560   1.276       .  A
O551       Cu556   2.009       .  S
O551        C560   1.277       .  A
O552       Cu556   2.000       .  S
O552        C559   1.276       .  A
O553       Cu556   2.004   1_554  S
O553        C558   1.276       .  A
O554       Cu556   2.001       .  S
O554        C557   1.276       .  A
Cu555      Cu556   2.366       .  S
C557       C3114   1.470       .  S
C558       C3194   1.498       .  S
C559       C4845   1.481   1_556  S
C560       C3125   1.490       .  S
O561       Cu569   2.008       .  S
O561        C571   1.277       .  A
O562       Cu569   2.005       .  S
O562        C572   1.277       .  A
O563       Cu569   1.997       .  S
O563        C573   1.276       .  A
O564       Cu569   2.010       .  S
O564        C574   1.278       .  A
O565       Cu570   1.990       .  S
O565        C574   1.275       .  A
O566       Cu570   1.987       .  S
O566        C573   1.275       .  A
O567       Cu570   2.022       .  S
O567        C572   1.280       .  A
O568       Cu570   2.019       .  S
O568        C571   1.279       .  A
Cu569      Cu570   2.371       .  S
C571       C3494   1.498       .  S
C572       C3085   1.486       .  S
C573       C3074   1.464       .  S
C574       C3134   1.468   1_545  S
O575       Cu583   2.030       .  S
O575        C585   1.280       .  A
O576       Cu583   2.031   1_455  S
O576        C586   1.280       .  A
O577       Cu583   2.002       .  S
O577        C587   1.277       .  A
O578       Cu583   1.996       .  S
O578        C588   1.275       .  A
O579       Cu584   2.005       .  S
O579        C588   1.278       .  A
O580       Cu584   2.012       .  S
O580        C587   1.278       .  A
O581       Cu584   1.995   1_455  S
O581        C586   1.276       .  A
O582       Cu584   1.994       .  S
O582        C585   1.275       .  A
Cu583      Cu584   2.374       .  S
C585       C3034   1.475       .  S
C586       C3094   1.479       .  S
C587       C3045   1.481       .  S
C588       C3274   1.476       .  S
O589       Cu597   1.992       .  S
O589        C599   1.274       .  A
O590       Cu597   1.986       .  S
O590        C600   1.274       .  A
O591       Cu597   2.026       .  S
O591        C601   1.281       .  A
O592       Cu597   2.015   1_655  S
O592        C602   1.277       .  A
O593       Cu598   2.000   1_655  S
O593        C602   1.277       .  A
O594       Cu598   1.992       .  S
O594        C601   1.273       .  A
O595       Cu598   2.024       .  S
O595        C600   1.280       .  A
O596       Cu598   2.022       .  S
O596        C599   1.281       .  A
Cu597      Cu598   2.370       .  S
C599       C3165   1.490       .  S
C600       C3005   1.485       .  S
C601       C2965   1.471       .  S
C602       C2985   1.473       .  S
O603       Cu611   2.020       .  S
O603        C613   1.279       .  A
O604       Cu611   2.006       .  S
O604        C614   1.276       .  A
O605       Cu611   1.997       .  S
O605        C615   1.276       .  A
O606       Cu611   1.998       .  S
O606        C616   1.277       .  A
O607       Cu612   2.007       .  S
O607        C616   1.277       .  A
O608       Cu612   2.005       .  S
O608        C615   1.275       .  A
O609       Cu612   2.018       .  S
O609        C614   1.279       .  A
O610       Cu612   2.006       .  S
O610        C613   1.276       .  A
Cu611      Cu612   2.368       .  S
C613       C3614   1.474       .  S
C614       C2994   1.476       .  S
C615       C2934   1.497       .  S
C616       C2945   1.481   1_545  S
O617       Cu625   1.988       .  S
O617        C627   1.275       .  A
O618       Cu625   1.980       .  S
O618        C628   1.274       .  A
O619       Cu625   2.020       .  S
O619        C629   1.280       .  A
O620       Cu625   2.020       .  S
O620        C630   1.279       .  A
O621       Cu626   1.996       .  S
O621        C630   1.275       .  A
O622       Cu626   1.990       .  S
O622        C629   1.274       .  A
O623       Cu626   2.010       .  S
O623        C628   1.278       .  A
O624       Cu626   2.010       .  S
O624        C627   1.278       .  A
Cu625      Cu626   2.373       .  S
C627       C4534   1.476       .  S
C628       C2954   1.478       .  S
C629       C2894   1.474       .  S
C630       C2914   1.474       .  S
O631       Cu639   2.016       .  S
O631        C641   1.278       .  A
O632       Cu639   2.013       .  S
O632        C642   1.278       .  A
O633       Cu639   1.998       .  S
O633        C643   1.277       .  A
O634       Cu639   2.003       .  S
O634        C644   1.277       .  A
O635       Cu640   2.000       .  S
O635        C644   1.277       .  A
O636       Cu640   2.007       .  S
O636        C643   1.277       .  A
O637       Cu640   1.999       .  S
O637        C642   1.276       .  A
O638       Cu640   1.999       .  S
O638        C641   1.276       .  A
Cu639      Cu640   2.374       .  S
C641       C3014   1.471       .  S
C642       C2854   1.474       .  S
C643       C2874   1.479       .  S
C644       C4705   1.478       .  S
O645       Cu653   2.001       .  S
O645        C655   1.277   1_545  A
O646       Cu653   2.012       .  S
O646        C656   1.278       .  A
O647       Cu653   2.016       .  S
O647        C657   1.278       .  A
O648       Cu653   2.016   1_565  S
O648        C658   1.278       .  A
O649       Cu654   2.007       .  S
O649        C658   1.277       .  A
O650       Cu654   1.997   1_545  S
O650        C657   1.277       .  A
O651       Cu654   2.003   1_545  S
O651        C656   1.277       .  A
O652       Cu654   2.000       .  S
O652        C655   1.277       .  A
Cu653      Cu654   2.373   1_545  S
C655       C2834   1.473       .  S
C656       C3705   1.484       .  S
C657       C2865   1.475       .  S
C658       C2805   1.482       .  S
O659       Cu667   2.011   1_545  S
O659        C669   1.276   1_545  A
O660       Cu667   1.998       .  S
O660        C670   1.276       .  A
O661       Cu667   2.002       .  S
O661        C671   1.277       .  A
O662       Cu667   1.994   1_455  S
O662        C672   1.276       .  A
O663       Cu668   1.997   1_455  S
O663        C672   1.275       .  A
O664       Cu668   1.997       .  S
O664        C671   1.274       .  A
O665       Cu668   2.020       .  S
O665        C670   1.279       .  A
O666       Cu668   2.009       .  S
O666        C669   1.278       .  A
Cu667      Cu668   2.366       .  S
C669       C3054   1.495   1_565  S
C670       C2905   1.484       .  S
C671       C2794   1.493       .  S
C672       C2825   1.463       .  S
O673       Cu681   1.999       .  S
O673        C683   1.276       .  A
O674       Cu681   1.993       .  S
O674        C684   1.275       .  A
O675       Cu681   2.013       .  S
O675        C685   1.279       .  A
O676       Cu681   2.013       .  S
O676        C686   1.278       .  A
O677       Cu682   2.003       .  S
O677        C686   1.278       .  A
O678       Cu682   1.999       .  S
O678        C685   1.276       .  A
O679       Cu682   2.005       .  S
O679        C684   1.278       .  A
O680       Cu682   2.009       .  S
O680        C683   1.277       .  A
Cu681      Cu682   2.373       .  S
C683       C2745   1.469       .  S
C684       C4434   1.472       .  S
C685       C2765   1.483       .  S
C686       C2725   1.483       .  S
O687       Cu695   2.006       .  S
O687        C697   1.278       .  A
O688       Cu695   2.007       .  S
O688        C698   1.278       .  A
O689       Cu695   1.997       .  S
O689        C699   1.275       .  A
O690       Cu695   1.989       .  S
O690        C700   1.276       .  A
O691       Cu696   2.019       .  S
O691        C700   1.279       .  A
O692       Cu696   2.008       .  S
O692        C699   1.278       .  A
O693       Cu696   1.992       .  S
O693        C698   1.276       .  A
O694       Cu696   1.997       .  S
O694        C697   1.276       .  A
Cu695      Cu696   2.374       .  S
C697       C2685   1.482       .  S
C698       C2754   1.472       .  S
C699       C4825   1.471       .  S
C700       C2705   1.474       .  S
O701       Cu709   1.998       .  S
O701        C711   1.276       .  A
O702       Cu709   2.001       .  S
O702        C712   1.272       .  A
O703       Cu709   2.010       .  S
O703        C713   1.277       .  A
O704       Cu709   2.007       .  S
O704        C714   1.277       .  A
O705       Cu710   1.996       .  S
O705        C714   1.276       .  A
O706       Cu710   1.982       .  S
O706        C713   1.273       .  A
O707       Cu710   1.984       .  S
O707        C712   1.277       .  A
O708       Cu710   2.005       .  S
O708        C711   1.277       .  A
Cu709      Cu710   2.366       .  S
C711       C2665   1.470       .  S
C712       C2634   1.491       .  S
C713       C2654   1.492       .  S
C714       C3854   1.469       .  S
O715       Cu723   2.010       .  S
O715        C725   1.277       .  A
O716       Cu723   2.027       .  S
O716        C726   1.280       .  A
O717       Cu723   2.000       .  S
O717        C727   1.275       .  A
O718       Cu723   1.999       .  S
O718        C728   1.264       .  A
O719       Cu724   2.000       .  S
O719        C728   1.286       .  A
O720       Cu724   1.999       .  S
O720        C727   1.277       .  A
O721       Cu724   1.995       .  S
O721        C726   1.275       .  A
O722       Cu724   2.009       .  S
O722        C725   1.278       .  A
Cu723      Cu724   2.364       .  S
C725       C3305   1.478       .  S
C726       C2774   1.477       .  S
C727       C2614   1.489       .  S
C728       C2645   1.499       .  S
O729       Cu737   1.992       .  S
O729        C739   1.275       .  A
O730       Cu737   1.987       .  S
O730        C740   1.274       .  A
O731       Cu737   2.007       .  S
O731        C741   1.278       .  A
O732       Cu737   2.015       .  S
O732        C742   1.279       .  A
O733       Cu738   1.995       .  S
O733        C742   1.274       .  A
O734       Cu738   1.982       .  S
O734        C741   1.274       .  A
O735       Cu738   2.035       .  S
O735        C740   1.281       .  A
O736       Cu738   2.022       .  S
O736        C739   1.280       .  A
Cu737      Cu738   2.368       .  S
C739       C2565   1.487       .  S
C740       C2714   1.489       .  S
C741       C4754   1.462       .  S
C742       C2585   1.494       .  S
O743       Cu751   2.014       .  S
O743        C753   1.279       .  A
O744       Cu751   2.021       .  S
O744        C754   1.280       .  A
O745       Cu751   2.000       .  S
O745        C755   1.276       .  A
O746       Cu751   1.996       .  S
O746        C756   1.276       .  A
O747       Cu752   2.001       .  S
O747        C756   1.277       .  A
O748       Cu752   1.997       .  S
O748        C755   1.277       .  A
O749       Cu752   1.979       .  S
O749        C754   1.274       .  A
O750       Cu752   1.977       .  S
O750        C753   1.273       .  A
Cu751      Cu752   2.378       .  S
C753       C2785   1.467       .  S
C754       C2674   1.474       .  S
C755       C2545   1.466       .  S
C756       C2594   1.470       .  S
O757       Cu765   1.989       .  S
O757        C767   1.276       .  A
O758       Cu765   2.004       .  S
O758        C768   1.276       .  A
O759       Cu765   2.002       .  S
O759        C769   1.278       .  A
O760       Cu765   2.006       .  S
O760        C770   1.277       .  A
O761       Cu766   1.998       .  S
O761        C770   1.277       .  A
O762       Cu766   1.994       .  S
O762        C769   1.275       .  A
O763       Cu766   2.019       .  S
O763        C768   1.279       .  A
O764       Cu766   2.023       .  S
O764        C767   1.278       .  A
Cu765      Cu766   2.373       .  S
C767       C2514   1.471       .  S
C768       C2814   1.480       .  S
C769       C2525   1.472       .  S
C770       C2485   1.485       .  S
O771       Cu779   2.003       .  S
O771        C781   1.276       .  A
O772       Cu779   2.006       .  S
O772        C782   1.278       .  A
O773       Cu779   2.004       .  S
O773        C783   1.277       .  A
O774       Cu779   1.994       .  S
O774        C784   1.276       .  A
O775       Cu780   1.990       .  S
O775        C784   1.275       .  A
O776       Cu780   1.989       .  S
O776        C783   1.275       .  A
O777       Cu780   2.009       .  S
O777        C782   1.278       .  A
O778       Cu780   2.003       .  S
O778        C781   1.278       .  A
Cu779      Cu780   2.374       .  S
C781       C2445   1.485       .  S
C782       C2505   1.479       .  S
C783       C4545   1.469       .  S
C784       C2465   1.462       .  S
O785       Cu793   2.004       .  S
O785        C795   1.278       .  A
O786       Cu793   2.004       .  S
O786        C796   1.277       .  A
O787       Cu793   2.000       .  S
O787        C797   1.276       .  A
O788       Cu793   1.998       .  S
O788        C798   1.276       .  A
O789       Cu794   2.014       .  S
O789        C798   1.278       .  A
O790       Cu794   2.018       .  S
O790        C797   1.279       .  A
O791       Cu794   1.995       .  S
O791        C796   1.276       .  A
O792       Cu794   2.004       .  S
O792        C795   1.276       .  A
Cu793      Cu794   2.376       .  S
C795       C2394   1.475       .  S
C796       C2434   1.475       .  S
C797       C4394   1.477       .  S
C798       C2405   1.472       .  S
O799       Cu807   1.990       .  S
O799        C809   1.276       .  A
O800       Cu807   1.990       .  S
O800        C810   1.275       .  A
O801       Cu807   2.018       .  S
O801        C811   1.278       .  A
O802       Cu807   2.010       .  S
O802        C812   1.278       .  A
O803       Cu808   1.997       .  S
O803        C812   1.276       .  A
O804       Cu808   1.993       .  S
O804        C811   1.275       .  A
O805       Cu808   1.984       .  S
O805        C810   1.275       .  A
O806       Cu808   1.986       .  S
O806        C809   1.275       .  A
Cu807      Cu808   2.376       .  S
C809       C2625   1.466       .  S
C810       C2474   1.472       .  S
C811       C4105   1.470       .  S
C812       C2425   1.468       .  S
O813       Cu821   1.996       .  S
O813        C823   1.275       .  A
O814       Cu821   1.998       .  S
O814        C824   1.276       .  A
O815       Cu821   2.008       .  S
O815        C825   1.278       .  A
O816       Cu821   2.002       .  S
O816        C826   1.277       .  A
O817       Cu822   1.994       .  S
O817        C826   1.276       .  A
O818       Cu822   2.007       .  S
O818        C825   1.277       .  A
O819       Cu822   2.001       .  S
O819        C824   1.277       .  A
O820       Cu822   1.998       .  S
O820        C823   1.277       .  A
Cu821      Cu822   2.376       .  S
C823       C2534   1.464       .  S
C824       C3105   1.471       .  S
C825       C2365   1.484       .  S
C826       C2694   1.473       .  S
O827       Cu835   2.000       .  S
O827        C837   1.276       .  A
O828       Cu835   2.000       .  S
O828        C838   1.277       .  A
O829       Cu835   2.018       .  S
O829        C839   1.279       .  A
O830       Cu835   2.016       .  S
O830        C840   1.279       .  A
O831       Cu836   1.999       .  S
O831        C840   1.276       .  A
O832       Cu836   1.996       .  S
O832        C839   1.276       .  A
O833       Cu836   2.012       .  S
O833        C838   1.278       .  A
O834       Cu836   2.009       .  S
O834        C837   1.278       .  A
Cu835      Cu836   2.375       .  S
C837       C2414   1.474       .  S
C838       C2345   1.477       .  S
C839       C2374   1.478       .  S
C840       C3425   1.476       .  S
O841       Cu849   2.002       .  S
O841        C851   1.277       .  A
O842       Cu849   2.000       .  S
O842        C852   1.276       .  A
O843       Cu849   2.015       .  S
O843        C853   1.279       .  A
O844       Cu849   2.012       .  S
O844        C854   1.278       .  A
O845       Cu850   1.995       .  S
O845        C854   1.275       .  A
O846       Cu850   1.988       .  S
O846        C853   1.275       .  A
O847       Cu850   2.009       .  S
O847        C852   1.278       .  A
O848       Cu850   2.005       .  S
O848        C851   1.278       .  A
Cu849      Cu850   2.373       .  S
C851       C2334   1.477       .  S
C852       C2285   1.485       .  S
C853       C2305   1.473       .  S
C854       C4505   1.470       .  S
O855       Cu863   2.009       .  S
O855        C865   1.277       .  A
O856       Cu863   2.006       .  S
O856        C866   1.277       .  A
O857       Cu863   1.985       .  S
O857        C867   1.274       .  A
O858       Cu863   1.982       .  S
O858        C868   1.275       .  A
O859       Cu864   2.003       .  S
O859        C868   1.277       .  A
O860       Cu864   2.003       .  S
O860        C867   1.278       .  A
O861       Cu864   1.993       .  S
O861        C866   1.275       .  A
O862       Cu864   1.996       .  S
O862        C865   1.276       .  A
Cu863      Cu864   2.376       .  S
C865       C2325   1.467       .  S
C866       C4074   1.465       .  S
C867       C2274   1.474       .  S
C868       C2245   1.474       .  S
O869       Cu877   2.010       .  S
O869        C879   1.278       .  A
O870       Cu877   2.010       .  S
O870        C880   1.279       .  A
O871       Cu877   1.992       .  S
O871        C881   1.276       .  A
O872       Cu877   1.998       .  S
O872        C882   1.276       .  A
O873       Cu878   1.993       .  S
O873        C882   1.275       .  A
O874       Cu878   2.023       .  S
O874        C881   1.279       .  A
O875       Cu878   2.001       .  S
O875        C880   1.276       .  A
O876       Cu878   1.993       .  S
O876        C879   1.273       .  A
Cu877      Cu878   2.366       .  S
C879       C2385   1.498       .  S
C880       C2314   1.489       .  S
C881       C4934   1.482       .  S
C882       C2225   1.463       .  S
O883       Cu891   2.003       .  S
O883        C893   1.277       .  A
O884       Cu891   2.002       .  S
O884        C894   1.278       .  A
O885       Cu891   1.997       .  S
O885        C895   1.275       .  A
O886       Cu891   1.997       .  S
O886        C896   1.276       .  A
O887       Cu892   1.992       .  S
O887        C896   1.275       .  A
O888       Cu892   1.988       .  S
O888        C895   1.276       .  A
O889       Cu892   1.998       .  S
O889        C894   1.276       .  A
O890       Cu892   1.994       .  S
O890        C893   1.276       .  A
Cu891      Cu892   2.378       .  S
C893       C2214   1.473       .  S
C894       C2494   1.474       .  S
C895       C2265   1.465       .  S
C896       C3694   1.463       .  S
O897       Cu905   2.026       .  S
O897        C907   1.280       .  A
O898       Cu905   2.026       .  S
O898        C908   1.280       .  A
O899       Cu905   1.988       .  S
O899        C909   1.274       .  A
O900       Cu905   1.976       .  S
O900        C910   1.273       .  A
O901       Cu906   2.007       .  S
O901        C910   1.277       .  A
O902       Cu906   2.009       .  S
O902        C909   1.277       .  A
O903       Cu906   2.009       .  S
O903        C908   1.278       .  A
O904       Cu906   2.009       .  S
O904        C907   1.277       .  A
Cu905      Cu906   2.374       .  S
C907       C2185   1.495       .  S
C908       C2165   1.489       .  S
C909       C2205   1.465       .  S
C910       C3534   1.458       .  S
O911       Cu919   1.989       .  S
O911        C921   1.275       .  A
O912       Cu919   1.987       .  S
O912        C922   1.275       .  A
O913       Cu919   2.023       .  S
O913        C923   1.279       .  A
O914       Cu919   2.020       .  S
O914        C924   1.279       .  A
O915       Cu920   1.999       .  S
O915        C924   1.275       .  A
O916       Cu920   1.991       .  S
O916        C923   1.276       .  A
O917       Cu920   2.010       .  S
O917        C922   1.277       .  A
O918       Cu920   1.996       .  S
O918        C921   1.276       .  A
Cu919      Cu920   2.365       .  S
C921       C2234   1.471       .  S
C922       C2145   1.486       .  S
C923       C2194   1.479       .  S
C924       C3154   1.500       .  S
O925       Cu933   2.001       .  S
O925        C935   1.276       .  A
O926       Cu933   1.998       .  S
O926        C936   1.276       .  A
O927       Cu933   2.019       .  S
O927        C937   1.279       .  A
O928       Cu933   2.016       .  S
O928        C938   1.279       .  A
O929       Cu934   2.001       .  S
O929        C938   1.276       .  A
O930       Cu934   2.005       .  S
O930        C937   1.277       .  A
O931       Cu934   2.026       .  S
O931        C936   1.280       .  A
O932       Cu934   2.013       .  S
O932        C935   1.278       .  A
Cu933      Cu934   2.373       .  S
C935       C3354   1.472       .  S
C936       C2105   1.479       .  S
C937       C2085   1.490       .  S
C938       C2134   1.478       .  S
O939       Cu947   1.999       .  S
O939        C949   1.275       .  A
O940       Cu947   1.996       .  S
O940        C950   1.274       .  A
O941       Cu947   2.013       .  S
O941        C951   1.278       .  A
O942       Cu947   2.022       .  S
O942        C952   1.279       .  A
O943       Cu948   2.008       .  S
O943        C952   1.277       .  A
O944       Cu948   2.003       .  S
O944        C951   1.277       .  A
O945       Cu948   2.019       .  S
O945        C950   1.278       .  A
O946       Cu948   2.026       .  S
O946        C949   1.280       .  A
Cu947      Cu948   2.364       .  S
C949       C2054   1.479       .  S
C950       C3925   1.506       .  S
C951       C2074   1.480       .  S
C952       C2734   1.494       .  S
O953       Cu961   2.019       .  S
O953        C963   1.278       .  A
O954       Cu961   2.021       .  S
O954        C964   1.278       .  A
O955       Cu961   2.004       .  S
O955        C965   1.277       .  A
O956       Cu961   2.006       .  S
O956        C966   1.277       .  A
O957       Cu962   2.032       .  S
O957        C966   1.280       .  A
O958       Cu962   2.038       .  S
O958        C965   1.281       .  A
O959       Cu962   2.012       .  S
O959        C964   1.278       .  A
O960       Cu962   1.997       .  S
O960        C963   1.276       .  A
Cu961      Cu962   2.363       .  S
C963       C3594   1.497       .  S
C964       C2065   1.480       .  S
C965       C2025   1.496       .  S
C966       C2114   1.487       .  S
O967       Cu975   2.022       .  S
O967        C977   1.278       .  A
O968       Cu975   2.030       .  S
O968        C978   1.281       .  A
O969       Cu975   1.992       .  S
O969        C979   1.276       .  A
O970       Cu975   2.005       .  S
O970        C980   1.276       .  A
O971       Cu976   2.007       .  S
O971        C980   1.278       .  A
O972       Cu976   2.017       .  S
O972        C979   1.278       .  A
O973       Cu976   1.990       .  S
O973        C978   1.275       .  A
O974       Cu976   2.000       .  S
O974        C977   1.276       .  A
Cu975      Cu976   2.370       .  S
C977       C2125   1.472       .  S
C978       C3025   1.485       .  S
C979       C2014   1.478       .  S
C980       C2554   1.490       .  S
O981       Cu989   2.007       .  S
O981        C991   1.277       .  A
O982       Cu989   2.001       .  S
O982        C992   1.277       .  A
O983       Cu989   1.983       .  S
O983        C993   1.275       .  A
O984       Cu989   1.998       .  S
O984        C994   1.276       .  A
O985       Cu990   2.011       .  S
O985        C994   1.278       .  A
O986       Cu990   2.011       .  S
O986        C993   1.278       .  A
O987       Cu990   2.007       .  S
O987        C992   1.277       .  A
O988       Cu990   2.012       .  S
O988        C991   1.278       .  A
Cu989      Cu990   2.374       .  S
C991       C2045   1.477       .  S
C992       C1974   1.480       .  S
C993       C1985   1.470       .  S
C994       C4694   1.475       .  S
O995      Cu1003   1.997       .  S
O995       C1005   1.276       .  A
O996      Cu1003   2.002       .  S
O996       C1006   1.277       .  A
O997      Cu1003   2.013       .  S
O997       C1007   1.278       .  A
O998      Cu1003   2.017       .  S
O998       C1008   1.278       .  A
O999      Cu1004   1.993       .  S
O999       C1008   1.275       .  A
O1000     Cu1004   1.992       .  S
O1000      C1007   1.275       .  A
O1001     Cu1004   1.995       .  S
O1001      C1006   1.276       .  A
O1002     Cu1004   1.992       .  S
O1002      C1005   1.275       .  A
Cu1003    Cu1004   2.371       .  S
C1005      C1945   1.481       .  S
C1006      C1994   1.483       .  S
C1007      C4985   1.467       .  S
C1008      C2005   1.467       .  S
O1009     Cu1017   2.010       .  S
O1009      C1019   1.278       .  A
O1010     Cu1017   2.012       .  S
O1010      C1020   1.278       .  A
O1011     Cu1017   2.010       .  S
O1011      C1021   1.277       .  A
O1012     Cu1017   2.005       .  S
O1012      C1022   1.277       .  A
O1013     Cu1018   1.994       .  S
O1013      C1022   1.276       .  A
O1014     Cu1018   1.987       .  S
O1014      C1021   1.275       .  A
O1015     Cu1018   2.007       .  S
O1015      C1020   1.277       .  A
O1016     Cu1018   2.008       .  S
O1016      C1019   1.278       .  A
Cu1017    Cu1018   2.372       .  S
C1019      C1925   1.484       .  S
C1020      C2354   1.492       .  S
C1021      C1914   1.464       .  S
C1022      C3625   1.468       .  S
O1023     Cu1031   2.012       .  S
O1023      C1033   1.278       .  A
O1024     Cu1031   2.012       .  S
O1024      C1034   1.278       .  A
O1025     Cu1031   1.999       .  S
O1025      C1035   1.275       .  A
O1026     Cu1031   1.989       .  S
O1026      C1036   1.275       .  A
O1027     Cu1032   2.004       .  S
O1027      C1036   1.276       .  A
O1028     Cu1032   1.999       .  S
O1028      C1035   1.277       .  A
O1029     Cu1032   1.986       .  S
O1029      C1034   1.275       .  A
O1030     Cu1032   1.989       .  S
O1030      C1033   1.275       .  A
Cu1031    Cu1032   2.375       .  S
C1033      C1965   1.486       .  S
C1034      C1905   1.475       .  S
C1035      C2845   1.465       .  S
C1036      C1894   1.462       .  S
O1037     Cu1045   2.018       .  S
O1037      C1047   1.277       .  A
O1038     Cu1045   2.005       .  S
O1038      C1048   1.277       .  A
O1039     Cu1045   2.009       .  S
O1039      C1049   1.278       .  A
O1040     Cu1045   2.010       .  S
O1040      C1050   1.278       .  A
O1041     Cu1046   2.009       .  S
O1041      C1050   1.276       .  A
O1042     Cu1046   2.008       .  S
O1042      C1049   1.278       .  A
O1043     Cu1046   2.000       .  S
O1043      C1048   1.276       .  A
O1044     Cu1046   2.000       .  S
O1044      C1047   1.276       .  A
Cu1045    Cu1046   2.368       .  S
C1047      C1934   1.471       .  S
C1048      C3914   1.470       .  S
C1049      C1874   1.486       .  S
C1050      C1845   1.498       .  S
O1051     Cu1059   1.997       .  S
O1051      C1061   1.276       .  A
O1052     Cu1059   2.000       .  S
O1052      C1062   1.276       .  A
O1053     Cu1059   2.008       .  S
O1053      C1063   1.278       .  A
O1054     Cu1059   2.006       .  S
O1054      C1064   1.278       .  A
O1055     Cu1060   2.006       .  S
O1055      C1064   1.277       .  A
O1056     Cu1060   2.013       .  S
O1056      C1063   1.278       .  A
O1057     Cu1060   2.013       .  S
O1057      C1062   1.277       .  A
O1058     Cu1060   2.004       .  S
O1058      C1061   1.277       .  A
Cu1059    Cu1060   2.373       .  S
C1061      C4334   1.471       .  S
C1062      C1865   1.471       .  S
C1063      C2094   1.488       .  S
C1064      C1825   1.483       .  S
O1065     Cu1073   2.010       .  S
O1065      C1075   1.278       .  A
O1066     Cu1073   2.006       .  S
O1066      C1076   1.278       .  A
O1067     Cu1073   2.000       .  S
O1067      C1077   1.276       .  A
O1068     Cu1073   2.002       .  S
O1068      C1078   1.277       .  A
O1069     Cu1074   2.019       .  S
O1069      C1078   1.279       .  A
O1070     Cu1074   2.015       .  S
O1070      C1077   1.279       .  A
O1071     Cu1074   1.994       .  S
O1071      C1076   1.276       .  A
O1072     Cu1074   1.997       .  S
O1072      C1075   1.276       .  A
Cu1073    Cu1074   2.374       .  S
C1075      C2454   1.479       .  S
C1076      C1805   1.474       .  S
C1077      C5105   1.475       .  S
C1078      C1834   1.477       .  S
O1079     Cu1087   1.991       .  S
O1079      C1089   1.276       .  A
O1080     Cu1087   1.996       .  S
O1080      C1090   1.276       .  A
O1081     Cu1087   1.998       .  S
O1081      C1091   1.277       .  A
O1082     Cu1087   2.002       .  S
O1082      C1092   1.277       .  A
O1083     Cu1088   2.002       .  S
O1083      C1092   1.277       .  A
O1084     Cu1088   1.996       .  S
O1084      C1091   1.276       .  A
O1085     Cu1088   1.997       .  S
O1085      C1090   1.277       .  A
O1086     Cu1088   2.006       .  S
O1086      C1089   1.276       .  A
Cu1087    Cu1088   2.377       .  S
C1089      C1814   1.466       .  S
C1090      C3065   1.466       .  S
C1091      C1885   1.469       .  S
C1092      C1785   1.479       .  S
O1093     Cu1101   2.011       .  S
O1093      C1103   1.278       .  A
O1094     Cu1101   2.012       .  S
O1094      C1104   1.279       .  A
O1095     Cu1101   2.006       .  S
O1095      C1105   1.277       .  A
O1096     Cu1101   2.015       .  S
O1096      C1106   1.279       .  A
O1097     Cu1102   1.987       .  S
O1097      C1106   1.275       .  A
O1098     Cu1102   1.974       .  S
O1098      C1105   1.274       .  A
O1099     Cu1102   1.994       .  S
O1099      C1104   1.275       .  A
O1100     Cu1102   1.997       .  S
O1100      C1103   1.277       .  A
Cu1101    Cu1102   2.374       .  S
C1103      C1774   1.481       .  S
C1104      C1794   1.481       .  S
C1105      C1754   1.458       .  S
C1106      C3465   1.472       .  S
O1107     Cu1115   2.022       .  S
O1107      C1117   1.279       .  A
O1108     Cu1115   2.016       .  S
O1108      C1118   1.279       .  A
O1109     Cu1115   1.987       .  S
O1109      C1119   1.275       .  A
O1110     Cu1115   1.987       .  S
O1110      C1120   1.276       .  A
O1111     Cu1116   1.993       .  S
O1111      C1120   1.276       .  A
O1112     Cu1116   1.993       .  S
O1112      C1119   1.276       .  A
O1113     Cu1116   2.003       .  S
O1113      C1118   1.277       .  A
O1114     Cu1116   2.001       .  S
O1114      C1117   1.276       .  A
Cu1115    Cu1116   2.376       .  S
C1117      C1734   1.475       .  S
C1118      C4274   1.476       .  S
C1119      C1745   1.466       .  S
C1120      C2254   1.473       .  S
O1121     Cu1129   2.007       .  S
O1121      C1131   1.278       .  A
O1122     Cu1129   2.003       .  S
O1122      C1132   1.277       .  A
O1123     Cu1129   1.989       .  S
O1123      C1133   1.275       .  A
O1124     Cu1129   1.987       .  S
O1124      C1134   1.275       .  A
O1125     Cu1130   2.005       .  S
O1125      C1134   1.278       .  A
O1126     Cu1130   2.002       .  S
O1126      C1133   1.278       .  A
O1127     Cu1130   2.008       .  S
O1127      C1132   1.277       .  A
O1128     Cu1130   2.014       .  S
O1128      C1131   1.278       .  A
Cu1129    Cu1130   2.375       .  S
C1131      C1685   1.477       .  S
C1132      C2974   1.474       .  S
C1133      C1705   1.471       .  S
C1134      C2154   1.473       .  S
O1135     Cu1143   2.007       .  S
O1135      C1145   1.277       .  A
O1136     Cu1143   2.006       .  S
O1136      C1146   1.278       .  A
O1137     Cu1143   2.001       .  S
O1137      C1147   1.277       .  A
O1138     Cu1143   1.998       .  S
O1138      C1148   1.276       .  A
O1139     Cu1144   2.013       .  S
O1139      C1148   1.278       .  A
O1140     Cu1144   2.012       .  S
O1140      C1147   1.278       .  A
O1141     Cu1144   2.020       .  S
O1141      C1146   1.279       .  A
O1142     Cu1144   2.024       .  S
O1142      C1145   1.280       .  A
Cu1143    Cu1144   2.372       .  S
C1145      C1665   1.491       .  S
C1146      C1694   1.484       .  S
C1147      C3725   1.476       .  S
C1148      C1765   1.474       .  S
O1149     Cu1157   2.016       .  S
O1149      C1159   1.278       .  A
O1150     Cu1157   2.004       .  S
O1150      C1160   1.277       .  A
O1151     Cu1157   2.003       .  S
O1151      C1161   1.277       .  A
O1152     Cu1157   2.014       .  S
O1152      C1162   1.277       .  A
O1153     Cu1158   2.006       .  S
O1153      C1162   1.277       .  A
O1154     Cu1158   2.001       .  S
O1154      C1161   1.276       .  A
O1155     Cu1158   2.016       .  S
O1155      C1160   1.278       .  A
O1156     Cu1158   2.007       .  S
O1156      C1159   1.278       .  A
Cu1157    Cu1158   2.372       .  S
C1159      C1625   1.483       .  S
C1160      C1725   1.481       .  S
C1161      C5045   1.483       .  S
C1162      C1645   1.474       .  S
O1163     Cu1171   2.000       .  S
O1163      C1173   1.276       .  A
O1164     Cu1171   1.997       .  S
O1164      C1174   1.277       .  A
O1165     Cu1171   2.002       .  S
O1165      C1175   1.277       .  A
O1166     Cu1171   2.005       .  S
O1166      C1176   1.277       .  A
O1167     Cu1172   2.014       .  S
O1167      C1176   1.278       .  A
O1168     Cu1172   2.015       .  S
O1168      C1175   1.279       .  A
O1169     Cu1172   1.984       .  S
O1169      C1174   1.274       .  A
O1170     Cu1172   1.988       .  S
O1170      C1173   1.275       .  A
Cu1171    Cu1172   2.377       .  S
C1173      C1714   1.466       .  S
C1174      C4594   1.463       .  S
C1175      C1654   1.480       .  S
C1176      C1854   1.479       .  S
O1177     Cu1185   1.989       .  S
O1177      C1187   1.275       .  A
O1178     Cu1185   2.000       .  S
O1178      C1188   1.276       .  A
O1179     Cu1185   2.017       .  S
O1179      C1189   1.279       .  A
O1180     Cu1185   2.006       .  S
O1180      C1190   1.277       .  A
O1181     Cu1186   1.991       .  S
O1181      C1190   1.276       .  A
O1182     Cu1186   1.986       .  S
O1182      C1189   1.275       .  A
O1183     Cu1186   2.015       .  S
O1183      C1188   1.279       .  A
O1184     Cu1186   2.015       .  S
O1184      C1187   1.278       .  A
Cu1185    Cu1186   2.370       .  S
C1187      C1585   1.472       .  S
C1188      C4185   1.488       .  S
C1189      C1605   1.474       .  S
C1190      C1954   1.477       .  S
O1191     Cu1199   2.011       .  S
O1191      C1201   1.278       .  A
O1192     Cu1199   2.011       .  S
O1192      C1202   1.278       .  A
O1193     Cu1199   1.992       .  S
O1193      C1203   1.275       .  A
O1194     Cu1199   1.990       .  S
O1194      C1204   1.275       .  A
O1195     Cu1200   2.015       .  S
O1195      C1204   1.278       .  A
O1196     Cu1200   2.007       .  S
O1196      C1203   1.277       .  A
O1197     Cu1200   2.011       .  S
O1197      C1202   1.278       .  A
O1198     Cu1200   2.019       .  S
O1198      C1201   1.279       .  A
Cu1199    Cu1200   2.372       .  S
C1201      C1674   1.495       .  S
C1202      C1565   1.486       .  S
C1203      C3965   1.468       .  S
C1204      C1614   1.469       .  S
O1205     Cu1213   2.002       .  S
O1205      C1215   1.277       .  A
O1206     Cu1213   2.004       .  S
O1206      C1216   1.278       .  A
O1207     Cu1213   2.002       .  S
O1207      C1217   1.276       .  A
O1208     Cu1213   2.005       .  S
O1208      C1218   1.277       .  A
O1209     Cu1214   2.021       .  S
O1209      C1218   1.279       .  A
O1210     Cu1214   2.021       .  S
O1210      C1217   1.279       .  A
O1211     Cu1214   1.992       .  S
O1211      C1216   1.275       .  A
O1212     Cu1214   1.994       .  S
O1212      C1215   1.276       .  A
Cu1213    Cu1214   2.374       .  S
C1215      C1525   1.473       .  S
C1216      C1594   1.476       .  S
C1217      C3394   1.480       .  S
C1218      C1554   1.478       .  S
O1219     Cu1227   2.003       .  S
O1219      C1229   1.276       .  A
O1220     Cu1227   2.005       .  S
O1220      C1230   1.276       .  A
O1221     Cu1227   2.021       .  S
O1221      C1231   1.279       .  A
O1222     Cu1227   2.010       .  S
O1222      C1232   1.277       .  A
O1223     Cu1228   2.011       .  S
O1223      C1232   1.278       .  A
O1224     Cu1228   2.002       .  S
O1224      C1231   1.277       .  A
O1225     Cu1228   2.014       .  S
O1225      C1230   1.279       .  A
O1226     Cu1228   2.018       .  S
O1226      C1229   1.278       .  A
Cu1227    Cu1228   2.363       .  S
C1229      C1505   1.473       .  S
C1230      C3254   1.489       .  S
C1231      C1545   1.491       .  S
C1232      C1634   1.494       .  S
O1233     Cu1241   2.026       .  S
O1233      C1243   1.280       .  A
O1234     Cu1241   2.044       .  S
O1234      C1244   1.282       .  A
O1235     Cu1241   1.997       .  S
O1235      C1245   1.276       .  A
O1236     Cu1241   1.990       .  S
O1236      C1246   1.275       .  A
O1237     Cu1242   2.021       .  S
O1237      C1246   1.279       .  A
O1238     Cu1242   2.031       .  S
O1238      C1245   1.281       .  A
O1239     Cu1242   2.012       .  S
O1239      C1244   1.277       .  A
O1240     Cu1242   2.012       .  S
O1240      C1243   1.277       .  A
Cu1241    Cu1242   2.366       .  S
C1243      C1514   1.484       .  S
C1244      C2034   1.491       .  S
C1245      C1485   1.492       .  S
C1246      C2925   1.490       .  S
O1247     Cu1255   1.998       .  S
O1247      C1257   1.276       .  A
O1248     Cu1255   1.997       .  S
O1248      C1258   1.275       .  A
O1249     Cu1255   2.024       .  S
O1249      C1259   1.279       .  A
O1250     Cu1255   2.029       .  S
O1250      C1260   1.281       .  A
O1251     Cu1256   1.999       .  S
O1251      C1260   1.276       .  A
O1252     Cu1256   1.994       .  S
O1252      C1259   1.276       .  A
O1253     Cu1256   2.017       .  S
O1253      C1258   1.279       .  A
O1254     Cu1256   2.014       .  S
O1254      C1257   1.278       .  A
Cu1255    Cu1256   2.370       .  S
C1257      C4654   1.472       .  S
C1258      C1574   1.473       .  S
C1259      C1474   1.494       .  S
C1260      C1494   1.490       .  S
O1261     Cu1269   2.002       .  S
O1261      C1271   1.277       .  A
O1262     Cu1269   1.999       .  S
O1262      C1272   1.277       .  A
O1263     Cu1269   1.989       .  S
O1263      C1273   1.275       .  A
O1264     Cu1269   1.988       .  S
O1264      C1274   1.274       .  A
O1265     Cu1270   1.998       .  S
O1265      C1274   1.276       .  A
O1266     Cu1270   2.000       .  S
O1266      C1273   1.276       .  A
O1267     Cu1270   2.003       .  S
O1267      C1272   1.277       .  A
O1268     Cu1270   2.003       .  S
O1268      C1271   1.277       .  A
Cu1269    Cu1270   2.375       .  S
C1271      C1454   1.483       .  S
C1272      C2605   1.479       .  S
C1273      C1425   1.462       .  S
C1274      C3214   1.459       .  S
O1275     Cu1283   2.018       .  S
O1275      C1285   1.279       .  A
O1276     Cu1283   2.013       .  S
O1276      C1286   1.279       .  A
O1277     Cu1283   1.991       .  S
O1277      C1287   1.275       .  A
O1278     Cu1283   1.988       .  S
O1278      C1288   1.275       .  A
O1279     Cu1284   2.009       .  S
O1279      C1288   1.278       .  A
O1280     Cu1284   2.014       .  S
O1280      C1287   1.279       .  A
O1281     Cu1284   1.991       .  S
O1281      C1286   1.275       .  A
O1282     Cu1284   1.991       .  S
O1282      C1285   1.276       .  A
Cu1283    Cu1284   2.374       .  S
C1285      C1385   1.473       .  S
C1286      C3785   1.471       .  S
C1287      C1405   1.480       .  S
C1288      C1534   1.477       .  S
O1289     Cu1297   1.993       .  S
O1289      C1299   1.275       .  A
O1290     Cu1297   1.994       .  S
O1290      C1300   1.275       .  A
O1291     Cu1297   2.004       .  S
O1291      C1301   1.277       .  A
O1292     Cu1297   2.007       .  S
O1292      C1302   1.278       .  A
O1293     Cu1298   2.003       .  S
O1293      C1302   1.277       .  A
O1294     Cu1298   2.007       .  S
O1294      C1301   1.277       .  A
O1295     Cu1298   2.020       .  S
O1295      C1300   1.279       .  A
O1296     Cu1298   2.012       .  S
O1296      C1299   1.278       .  A
Cu1297    Cu1298   2.372       .  S
C1299      C2885   1.474       .  S
C1300      C1445   1.474       .  S
C1301      C2294   1.484       .  S
C1302      C1394   1.480       .  S
O1303     Cu1311   1.999       .  S
O1303      C1313   1.277       .  A
O1304     Cu1311   2.001       .  S
O1304      C1314   1.276       .  A
O1305     Cu1311   2.006       .  S
O1305      C1315   1.278       .  A
O1306     Cu1311   2.011       .  S
O1306      C1316   1.278       .  A
O1307     Cu1312   1.989       .  S
O1307      C1316   1.276       .  A
O1308     Cu1312   1.987       .  S
O1308      C1315   1.275       .  A
O1309     Cu1312   2.008       .  S
O1309      C1314   1.277       .  A
O1310     Cu1312   2.010       .  S
O1310      C1313   1.278       .  A
Cu1311    Cu1312   2.374       .  S
C1313      C1365   1.474       .  S
C1314      C4874   1.471       .  S
C1315      C1434   1.473       .  S
C1316      C1465   1.480       .  S
O1317     Cu1325   2.001       .  S
O1317      C1327   1.277       .  A
O1318     Cu1325   2.000       .  S
O1318      C1328   1.276       .  A
O1319     Cu1325   2.011       .  S
O1319      C1329   1.278       .  A
O1320     Cu1325   2.011       .  S
O1320      C1330   1.278       .  A
O1321     Cu1326   2.008       .  S
O1321      C1330   1.278       .  A
O1322     Cu1326   2.009       .  S
O1322      C1329   1.278       .  A
O1323     Cu1326   1.994       .  S
O1323      C1328   1.276       .  A
O1324     Cu1326   2.010       .  S
O1324      C1327   1.277       .  A
Cu1325    Cu1326   2.372       .  S
C1327      C1414   1.475       .  S
C1328      C4034   1.465       .  S
C1329      C1345   1.482       .  S
C1330      C2574   1.491       .  S
O1331     Cu1339   2.005       .  S
O1331      C1341   1.276       .  A
O1332     Cu1339   2.018       .  S
O1332      C1342   1.278       .  A
O1333     Cu1339   2.007       .  S
O1333      C1343   1.277       .  A
O1334     Cu1339   2.010       .  S
O1334      C1344   1.277       .  A
O1335     Cu1340   2.007       .  S
O1335      C1344   1.277       .  A
O1336     Cu1340   2.014       .  S
O1336      C1343   1.277       .  A
O1337     Cu1340   2.018       .  S
O1337      C1342   1.279       .  A
O1338     Cu1340   2.006       .  S
O1338      C1341   1.278       .  A
Cu1339    Cu1340   2.367       .  S
C1341      C1374   1.490       .  S
C1342      C2174   1.503       .  S
C1343      C1354   1.474       .  S
C1344      C4205   1.472       .  S
C1345      C1346   1.415       .  A
C1345      C1350   1.414       .  A
C1346      C1347   1.408       .  A
C1346     Br1358   1.933       .  S
C1347      C1348   1.408       .  A
C1347     Br1362   1.930       .  S
C1348      C1351   1.487       .  S
C1348      C1349   1.410       .  A
C1349      C1350   1.408       .  A
C1349     Br1357   1.931       .  S
C1350     Br1361   1.932       .  S
C1351      C1352   1.410       .  A
C1351      C1356   1.411       .  A
C1352      C1353   1.409       .  A
C1352     Br1363   1.930       .  S
C1353      C1354   1.411       .  A
C1353     Br1359   1.930       .  S
C1354      C1355   1.406       .  A
C1355      C1356   1.407       .  A
C1355     Br1364   1.929       .  S
C1356     Br1360   1.929       .  S
C1365      C1366   1.409       .  A
C1365      C1370   1.414       .  A
C1366      C1367   1.405       .  A
C1366     Br1378   1.930       .  S
C1367      C1368   1.409       .  A
C1367     Br1382   1.930       .  S
C1368      C1371   1.480       .  S
C1368      C1369   1.407       .  A
C1369      C1370   1.407       .  A
C1369     Br1377   1.930       .  S
C1370     Br1381   1.931       .  S
C1371      C1372   1.404       .  A
C1371      C1376   1.406       .  A
C1372      C1373   1.406       .  A
C1372     Br1383   1.932       .  S
C1373      C1374   1.419       .  A
C1373     Br1379   1.934       .  S
C1374      C1375   1.421       .  A
C1375      C1376   1.408       .  A
C1375     Br1384   1.934       .  S
C1376     Br1380   1.932       .  S
C1385      C1386   1.411       .  A
C1385      C1390   1.411       .  A
C1386      C1387   1.404       .  A
C1386     Br1398   1.931       .  S
C1387      C1388   1.407       .  A
C1387     Br1402   1.930       .  S
C1388      C1391   1.481       .  S
C1388      C1389   1.409       .  A
C1389      C1390   1.408       .  A
C1389     Br1397   1.928       .  S
C1390     Br1401   1.930       .  S
C1391      C1392   1.409       .  A
C1391      C1396   1.406       .  A
C1392      C1393   1.405       .  A
C1392     Br1403   1.932       .  S
C1393      C1394   1.412       .  A
C1393     Br1399   1.933       .  S
C1394      C1395   1.417       .  A
C1395      C1396   1.409       .  A
C1395     Br1404   1.932       .  S
C1396     Br1400   1.930       .  S
C1405      C1406   1.416       .  A
C1405      C1410   1.413       .  A
C1406      C1407   1.406       .  A
C1406     Br1418   1.933       .  S
C1407      C1408   1.406       .  A
C1407     Br1422   1.930       .  S
C1408      C1411   1.481       .  S
C1408      C1409   1.409       .  A
C1409      C1410   1.407       .  A
C1409     Br1417   1.931       .  S
C1410     Br1421   1.932       .  S
C1411      C1412   1.408       .  A
C1411      C1416   1.408       .  A
C1412      C1413   1.406       .  A
C1412     Br1423   1.930       .  S
C1413      C1414   1.410       .  A
C1413     Br1419   1.930       .  S
C1414      C1415   1.413       .  A
C1415      C1416   1.407       .  A
C1415     Br1424   1.932       .  S
C1416     Br1420   1.930       .  S
C1425      C1426   1.407       .  A
C1425      C1430   1.410       .  A
C1426      C1427   1.404       .  A
C1426     Br1438   1.930       .  S
C1427      C1428   1.408       .  A
C1427     Br1442   1.929       .  S
C1428      C1431   1.473       .  S
C1428      C1429   1.406       .  A
C1429      C1430   1.402       .  A
C1429     Br1437   1.931       .  S
C1430     Br1441   1.931       .  S
C1431      C1432   1.406       .  A
C1431      C1436   1.405       .  A
C1432      C1433   1.403       .  A
C1432     Br1443   1.932       .  S
C1433      C1434   1.415       .  A
C1433     Br1439   1.934       .  S
C1434      C1435   1.414       .  A
C1435      C1436   1.404       .  A
C1435     Br1444   1.932       .  S
C1436     Br1440   1.931       .  S
C1445      C1446   1.411       .  A
C1445      C1450   1.411       .  A
C1446      C1447   1.407       .  A
C1446     Br1458   1.930       .  S
C1447      C1448   1.408       .  A
C1447     Br1462   1.930       .  S
C1448      C1451   1.481       .  S
C1448      C1449   1.408       .  A
C1449      C1450   1.406       .  A
C1449     Br1457   1.931       .  S
C1450     Br1461   1.930       .  S
C1451      C1452   1.406       .  A
C1451      C1456   1.406       .  A
C1452      C1453   1.406       .  A
C1452     Br1463   1.932       .  S
C1453      C1454   1.417       .  A
C1453     Br1459   1.935       .  S
C1454      C1455   1.418       .  A
C1455      C1456   1.407       .  A
C1455     Br1464   1.934       .  S
C1456     Br1460   1.930       .  S
C1465      C1466   1.414       .  A
C1465      C1470   1.417       .  A
C1466      C1467   1.405       .  A
C1466     Br1478   1.933       .  S
C1467      C1468   1.406       .  A
C1467     Br1482   1.929       .  S
C1468      C1471   1.482       .  S
C1468      C1469   1.408       .  A
C1469      C1470   1.407       .  A
C1469     Br1477   1.932       .  S
C1470     Br1481   1.934       .  S
C1471      C1472   1.404       .  A
C1471      C1476   1.406       .  A
C1472      C1473   1.406       .  A
C1472     Br1483   1.932       .  S
C1473      C1474   1.421       .  A
C1473     Br1479   1.934       .  S
C1474      C1475   1.422       .  A
C1475      C1476   1.409       .  A
C1475     Br1484   1.932       .  S
C1476     Br1480   1.933       .  S
C1485      C1486   1.420       .  A
C1485      C1490   1.417       .  A
C1486      C1487   1.411       .  A
C1486     Br1498   1.933       .  S
C1487      C1488   1.407       .  A
C1487     Br1502   1.931       .  S
C1488      C1491   1.490       .  S
C1488      C1489   1.407       .  A
C1489      C1490   1.409       .  A
C1489     Br1497   1.931       .  S
C1490     Br1501   1.931       .  S
C1491      C1492   1.406       .  A
C1491      C1496   1.410       .  A
C1492      C1493   1.408       .  A
C1492     Br1503   1.931       .  S
C1493      C1494   1.417       .  A
C1493     Br1499   1.933       .  S
C1494      C1495   1.416       .  A
C1495      C1496   1.411       .  A
C1495     Br1504   1.932       .  S
C1496     Br1500   1.930       .  S
C1505      C1506   1.409       .  A
C1505      C1510   1.408       .  A
C1506      C1507   1.407       .  A
C1506     Br1518   1.930       .  S
C1507      C1508   1.409       .  A
C1507     Br1522   1.929       .  S
C1508      C1511   1.485       .  S
C1508      C1509   1.410       .  A
C1509      C1510   1.408       .  A
C1509     Br1517   1.929       .  S
C1510     Br1521   1.929       .  S
C1511      C1512   1.409       .  A
C1511      C1516   1.406       .  A
C1512      C1513   1.410       .  A
C1512     Br1523   1.928       .  S
C1513      C1514   1.412       .  A
C1513     Br1519   1.930       .  S
C1514      C1515   1.412       .  A
C1515      C1516   1.407       .  A
C1515     Br1524   1.920       .  S
C1516     Br1520   1.932       .  S
C1525      C1526   1.413       .  A
C1525      C1530   1.412       .  A
C1526      C1527   1.404       .  A
C1526     Br1538   1.934       .  S
C1527      C1528   1.408       .  A
C1527     Br1542   1.933       .  S
C1528      C1531   1.477       .  S
C1528      C1529   1.407       .  A
C1529      C1530   1.405       .  A
C1529     Br1537   1.930       .  S
C1530     Br1541   1.931       .  S
C1531      C1532   1.406       .  A
C1531      C1536   1.408       .  A
C1532      C1533   1.405   1_545  A
C1532     Br1543   1.931       .  S
C1533      C1534   1.416       .  A
C1533     Br1539   1.933       .  S
C1534      C1535   1.414       .  A
C1535      C1536   1.404   1_565  A
C1535     Br1544   1.933       .  S
C1536     Br1540   1.933       .  S
C1545      C1546   1.419       .  A
C1545      C1550   1.418       .  A
C1546      C1547   1.409       .  A
C1546     Br1558   1.934       .  S
C1547      C1548   1.406       .  A
C1547     Br1562   1.931       .  S
C1548      C1551   1.487       .  S
C1548      C1549   1.408       .  A
C1549      C1550   1.409       .  A
C1549     Br1557   1.932       .  S
C1550     Br1561   1.933       .  S
C1551      C1552   1.409       .  A
C1551      C1556   1.410       .  A
C1552      C1553   1.409       .  A
C1552     Br1563   1.929       .  S
C1553      C1554   1.412       .  A
C1553     Br1559   1.930       .  S
C1554      C1555   1.410       .  A
C1555      C1556   1.408       .  A
C1555     Br1564   1.930       .  S
C1556     Br1560   1.930       .  S
C1565      C1566   1.417       .  A
C1565      C1570   1.416       .  A
C1566      C1567   1.408       .  A
C1566     Br1578   1.933       .  S
C1567      C1568   1.407       .  A
C1567     Br1582   1.931       .  S
C1568      C1571   1.484       .  S
C1568      C1569   1.407       .  A
C1569      C1570   1.408       .  A
C1569     Br1577   1.931       .  S
C1570     Br1581   1.932       .  S
C1571      C1572   1.409       .  A
C1571      C1576   1.410       .  A
C1572      C1573   1.406       .  A
C1572     Br1583   1.930       .  S
C1573      C1574   1.410       .  A
C1573     Br1579   1.931       .  S
C1574      C1575   1.410       .  A
C1575      C1576   1.408       .  A
C1575     Br1584   1.931       .  S
C1576     Br1580   1.929       .  S
C1585      C1586   1.412       .  A
C1585      C1590   1.411       .  A
C1586      C1587   1.406       .  A
C1586     Br1598   1.931       .  S
C1587      C1588   1.408       .  A
C1587     Br1602   1.930       .  S
C1588      C1591   1.479       .  S
C1588      C1589   1.408       .  A
C1589      C1590   1.404       .  A
C1589     Br1597   1.931       .  S
C1590     Br1601   1.931       .  S
C1591      C1592   1.408       .  A
C1591      C1596   1.406       .  A
C1592      C1593   1.403       .  A
C1592     Br1603   1.933       .  S
C1593      C1594   1.413       .  A
C1593     Br1599   1.935       .  S
C1594      C1595   1.416       .  A
C1595      C1596   1.407       .  A
C1595     Br1604   1.933       .  S
C1596     Br1600   1.930       .  S
C1605      C1606   1.412       .  A
C1605      C1610   1.413       .  A
C1606      C1607   1.407       .  A
C1606     Br1618   1.932       .  S
C1607      C1608   1.410       .  A
C1607     Br1622   1.930       .  S
C1608      C1611   1.481       .  S
C1608      C1609   1.407       .  A
C1609      C1610   1.404       .  A
C1609     Br1617   1.931       .  S
C1610     Br1621   1.933       .  S
C1611      C1612   1.410       .  A
C1611      C1616   1.409       .  A
C1612      C1613   1.407       .  A
C1612     Br1623   1.928       .  S
C1613      C1614   1.408       .  A
C1613     Br1619   1.929       .  S
C1614      C1615   1.410       .  A
C1615      C1616   1.404       .  A
C1615     Br1624   1.930       .  S
C1616     Br1620   1.932       .  S
C1625      C1626   1.414       .  A
C1625      C1630   1.415       .  A
C1626      C1627   1.410       .  A
C1626     Br1638   1.929       .  S
C1627      C1628   1.409       .  A
C1627     Br1642   1.929   1_455  S
C1628      C1631   1.487   1_455  S
C1628      C1629   1.409       .  A
C1629      C1630   1.407       .  A
C1629     Br1637   1.933       .  S
C1630     Br1641   1.933       .  S
C1631      C1632   1.406       .  A
C1631      C1636   1.406       .  A
C1632      C1633   1.410       .  A
C1632     Br1643   1.930   1_655  S
C1633      C1634   1.420       .  A
C1633     Br1639   1.933       .  S
C1634      C1635   1.421       .  A
C1635      C1636   1.408       .  A
C1635     Br1644   1.934       .  S
C1636     Br1640   1.933       .  S
C1645      C1646   1.410       .  A
C1645      C1650   1.408       .  A
C1646      C1647   1.407       .  A
C1646     Br1658   1.929       .  S
C1647      C1648   1.408       .  A
C1647     Br1662   1.929       .  S
C1648      C1651   1.484       .  S
C1648      C1649   1.409       .  A
C1649      C1650   1.407       .  A
C1649     Br1657   1.928       .  S
C1650     Br1661   1.928       .  S
C1651      C1652   1.410       .  A
C1651      C1656   1.407       .  A
C1652      C1653   1.407       .  A
C1652     Br1663   1.932       .  S
C1653      C1654   1.412       .  A
C1653     Br1659   1.932       .  S
C1654      C1655   1.416       .  A
C1655      C1656   1.409       .  A
C1655     Br1664   1.933       .  S
C1656     Br1660   1.929       .  S
C1665      C1666   1.417       .  A
C1665      C1670   1.417       .  A
C1666      C1667   1.408       .  A
C1666     Br1678   1.933       .  S
C1667      C1668   1.409       .  A
C1667     Br1682   1.932       .  S
C1668      C1671   1.492       .  S
C1668      C1669   1.410       .  A
C1669      C1670   1.412       .  A
C1669     Br1677   1.930       .  S
C1670     Br1681   1.931       .  S
C1671      C1672   1.409       .  A
C1671      C1676   1.408       .  A
C1672      C1673   1.412       .  A
C1672     Br1683   1.930       .  S
C1673      C1674   1.419       .  A
C1673     Br1679   1.932       .  S
C1674      C1675   1.420       .  A
C1675      C1676   1.408       .  A
C1675     Br1684   1.934       .  S
C1676     Br1680   1.934       .  S
C1685      C1686   1.412       .  A
C1685      C1690   1.410       .  A
C1686      C1687   1.410       .  A
C1686     Br1698   1.931       .  S
C1687      C1688   1.410       .  A
C1687     Br1702   1.929       .  S
C1688      C1691   1.486       .  S
C1688      C1689   1.409       .  A
C1689      C1690   1.406       .  A
C1689     Br1697   1.929       .  S
C1690     Br1701   1.931       .  S
C1691      C1692   1.408       .  A
C1691      C1696   1.409       .  A
C1692      C1693   1.407       .  A
C1692     Br1703   1.930       .  S
C1693      C1694   1.414       .  A
C1693     Br1699   1.932       .  S
C1694      C1695   1.415       .  A
C1695      C1696   1.411       .  A
C1695     Br1704   1.931       .  S
C1696     Br1700   1.930       .  S
C1705      C1706   1.412       .  A
C1705      C1710   1.413       .  A
C1706      C1707   1.404       .  A
C1706     Br1718   1.931       .  S
C1707      C1708   1.406       .  A
C1707     Br1722   1.930       .  S
C1708      C1711   1.473       .  S
C1708      C1709   1.407       .  A
C1709      C1710   1.402       .  A
C1709     Br1717   1.932       .  S
C1710     Br1721   1.934       .  S
C1711      C1712   1.406       .  A
C1711      C1716   1.409       .  A
C1712      C1713   1.404       .  A
C1712     Br1723   1.930       .  S
C1713      C1714   1.412       .  A
C1713     Br1719   1.932       .  S
C1714      C1715   1.408       .  A
C1715      C1716   1.402       .  A
C1715     Br1724   1.931       .  S
C1716     Br1720   1.932       .  S
C1725      C1726   1.415       .  A
C1725      C1730   1.412       .  A
C1726      C1727   1.407       .  A
C1726     Br1738   1.933       .  S
C1727      C1728   1.407       .  A
C1727     Br1742   1.931       .  S
C1728      C1731   1.485       .  S
C1728      C1729   1.410       .  A
C1729      C1730   1.409       .  A
C1729     Br1737   1.930       .  S
C1730     Br1741   1.930       .  S
C1731      C1732   1.409       .  A
C1731      C1736   1.409       .  A
C1732      C1733   1.408       .  A
C1732     Br1743   1.929       .  S
C1733      C1734   1.410       .  A
C1733     Br1739   1.929       .  S
C1734      C1735   1.409       .  A
C1735      C1736   1.408       .  A
C1735     Br1744   1.929       .  S
C1736     Br1740   1.929       .  S
C1745      C1746   1.412       .  A
C1745      C1750   1.413       .  A
C1746      C1747   1.402       .  A
C1746     Br1758   1.933       .  S
C1747      C1748   1.406       .  A
C1747     Br1762   1.932       .  S
C1748      C1751   1.468       .  S
C1748      C1749   1.404       .  A
C1749      C1750   1.401       .  A
C1749     Br1757   1.931       .  S
C1750     Br1761   1.933       .  S
C1751      C1752   1.408       .  A
C1751      C1756   1.406       .  A
C1752      C1753   1.403       .  A
C1752     Br1763   1.931       .  S
C1753      C1754   1.408       .  A
C1753     Br1759   1.930       .  S
C1754      C1755   1.408       .  A
C1755      C1756   1.400       .  A
C1755     Br1764   1.931       .  S
C1756     Br1760   1.929       .  S
C1765      C1766   1.411       .  A
C1765      C1770   1.411       .  A
C1766      C1767   1.407       .  A
C1766     Br1778   1.930       .  S
C1767      C1768   1.408       .  A
C1767     Br1782   1.929       .  S
C1768      C1771   1.481       .  S
C1768      C1769   1.408       .  A
C1769      C1770   1.405       .  A
C1769     Br1777   1.931       .  S
C1770     Br1781   1.931       .  S
C1771      C1772   1.406       .  A
C1771      C1776   1.407       .  A
C1772      C1773   1.405       .  A
C1772     Br1783   1.931       .  S
C1773      C1774   1.417       .  A
C1773     Br1779   1.935       .  S
C1774      C1775   1.415       .  A
C1775      C1776   1.408       .  A
C1775     Br1784   1.931       .  S
C1776     Br1780   1.930       .  S
C1785      C1786   1.415       .  A
C1785      C1790   1.415       .  A
C1786      C1787   1.407       .  A
C1786     Br1798   1.932       .  S
C1787      C1788   1.407       .  A
C1787     Br1802   1.930   1_556  S
C1788      C1791   1.480   1_556  S
C1788      C1789   1.408       .  A
C1789      C1790   1.405       .  A
C1789     Br1797   1.933       .  S
C1790     Br1801   1.933       .  S
C1791      C1792   1.407       .  A
C1791      C1796   1.407       .  A
C1792      C1793   1.408       .  A
C1792     Br1803   1.930       .  S
C1793      C1794   1.416       .  A
C1793     Br1799   1.932       .  S
C1794      C1795   1.416       .  A
C1795      C1796   1.403       .  A
C1795     Br1804   1.934       .  S
C1796     Br1800   1.934       .  S
C1805      C1806   1.411       .  A
C1805      C1810   1.416       .  A
C1806      C1807   1.404       .  A
C1806     Br1818   1.932       .  S
C1807      C1808   1.408       .  A
C1807     Br1822   1.931       .  S
C1808      C1811   1.476       .  S
C1808      C1809   1.405       .  A
C1809      C1810   1.405       .  A
C1809     Br1817   1.931       .  S
C1810     Br1821   1.933       .  S
C1811      C1812   1.408       .  A
C1811      C1816   1.408       .  A
C1812      C1813   1.406       .  A
C1812     Br1823   1.929       .  S
C1813      C1814   1.410       .  A
C1813     Br1819   1.930       .  S
C1814      C1815   1.407       .  A
C1815      C1816   1.402       .  A
C1815     Br1824   1.930       .  S
C1816     Br1820   1.930       .  S
C1825      C1826   1.414       .  A
C1825      C1830   1.417       .  A
C1826      C1827   1.405       .  A
C1826     Br1838   1.934       .  S
C1827      C1828   1.408       .  A
C1827     Br1842   1.932       .  S
C1828      C1831   1.484       .  S
C1828      C1829   1.407       .  A
C1829      C1830   1.409       .  A
C1829     Br1837   1.930       .  S
C1830     Br1841   1.933       .  S
C1831      C1832   1.409       .  A
C1831      C1836   1.408       .  A
C1832      C1833   1.407       .  A
C1832     Br1843   1.930       .  S
C1833      C1834   1.411       .  A
C1833     Br1839   1.930       .  S
C1834      C1835   1.412       .  A
C1835      C1836   1.408       .  A
C1835     Br1844   1.930       .  S
C1836     Br1840   1.930       .  S
C1845      C1846   1.422       .  A
C1845      C1850   1.425       .  A
C1846      C1847   1.409       .  A
C1846     Br1858   1.934       .  S
C1847      C1848   1.404       .  A
C1847     Br1862   1.931       .  S
C1848      C1851   1.485       .  S
C1848      C1849   1.405       .  A
C1849      C1850   1.409       .  A
C1849     Br1857   1.935       .  S
C1850     Br1861   1.936       .  S
C1851      C1852   1.409       .  A
C1851      C1856   1.408       .  A
C1852      C1853   1.407       .  A
C1852     Br1863   1.931       .  S
C1853      C1854   1.413       .  A
C1853     Br1859   1.932       .  S
C1854      C1855   1.412       .  A
C1855      C1856   1.408       .  A
C1855     Br1864   1.930       .  S
C1856     Br1860   1.929       .  S
C1865      C1866   1.407       .  A
C1865      C1870   1.411       .  A
C1866      C1867   1.406       .  A
C1866     Br1878   1.929       .  S
C1867      C1868   1.409       .  A
C1867     Br1882   1.929       .  S
C1868      C1871   1.483       .  S
C1868      C1869   1.409       .  A
C1869      C1870   1.407       .  A
C1869     Br1877   1.929       .  S
C1870     Br1881   1.930       .  S
C1871      C1872   1.405       .  A
C1871      C1876   1.407       .  A
C1872      C1873   1.409       .  A
C1872     Br1883   1.930       .  S
C1873      C1874   1.419       .  A
C1873     Br1879   1.933       .  S
C1874      C1875   1.417       .  A
C1875      C1876   1.406       .  A
C1875     Br1884   1.934       .  S
C1876     Br1880   1.933       .  S
C1885      C1886   1.414       .  A
C1885      C1890   1.410       .  A
C1886      C1887   1.404       .  A
C1886     Br1898   1.932       .  S
C1887      C1888   1.405       .  A
C1887     Br1902   1.930       .  S
C1888      C1891   1.473       .  S
C1888      C1889   1.409       .  A
C1889      C1890   1.403       .  A
C1889     Br1897   1.932       .  S
C1890     Br1901   1.933       .  S
C1891      C1892   1.408       .  A
C1891      C1896   1.408       .  A
C1892      C1893   1.404       .  A
C1892     Br1903   1.929       .  S
C1893      C1894   1.409       .  A
C1893     Br1899   1.930       .  S
C1894      C1895   1.406       .  A
C1895      C1896   1.402       .  A
C1895     Br1904   1.930       .  S
C1896     Br1900   1.930       .  S
C1905      C1906   1.413       .  A
C1905      C1910   1.416       .  A
C1906      C1907   1.405       .  A
C1906     Br1918   1.933       .  S
C1907      C1908   1.409       .  A
C1907     Br1922   1.933       .  S
C1908      C1911   1.476       .  S
C1908      C1909   1.404       .  A
C1909      C1910   1.404       .  A
C1909     Br1917   1.930       .  S
C1910     Br1921   1.934       .  S
C1911      C1912   1.407       .  A
C1911      C1916   1.408       .  A
C1912      C1913   1.404       .  A
C1912     Br1923   1.930       .  S
C1913      C1914   1.409       .  A
C1913     Br1919   1.929       .  S
C1914      C1915   1.407       .  A
C1915      C1916   1.404       .  A
C1915     Br1924   1.930       .  S
C1916     Br1920   1.929       .  S
C1925      C1926   1.417       .  A
C1925      C1930   1.415       .  A
C1926      C1927   1.410       .  A
C1926     Br1938   1.933       .  S
C1927      C1928   1.408       .  A
C1927     Br1942   1.930       .  S
C1928      C1931   1.486       .  S
C1928      C1929   1.409       .  A
C1929      C1930   1.406       .  A
C1929     Br1937   1.932       .  S
C1930     Br1941   1.934       .  S
C1931      C1932   1.411       .  A
C1931      C1936   1.410       .  A
C1932      C1933   1.407       .  A
C1932     Br1943   1.930       .  S
C1933      C1934   1.408       .  A
C1933     Br1939   1.929       .  S
C1934      C1935   1.407       .  A
C1935      C1936   1.407       .  A
C1935     Br1944   1.929       .  S
C1936     Br1940   1.929       .  S
C1945      C1946   1.420       .  A
C1945      C1950   1.418       .  A
C1946      C1947   1.404       .  A
C1946     Br1958   1.937       .  S
C1947      C1948   1.404   1_556  A
C1947     Br1962   1.933       .  S
C1948      C1951   1.475       .  S
C1948      C1949   1.404       .  A
C1949      C1950   1.404   1_554  A
C1949     Br1957   1.932       .  S
C1950     Br1961   1.933       .  S
C1951      C1952   1.406       .  A
C1951      C1956   1.405       .  A
C1952      C1953   1.405       .  A
C1952     Br1963   1.932       .  S
C1953      C1954   1.415       .  A
C1953     Br1959   1.932       .  S
C1954      C1955   1.415       .  A
C1955      C1956   1.403       .  A
C1955     Br1964   1.933       .  S
C1956     Br1960   1.932       .  S
C1965      C1966   1.419       .  A
C1965      C1970   1.419       .  A
C1966      C1967   1.406       .  A
C1966     Br1978   1.934       .  S
C1967      C1968   1.404       .  A
C1967     Br1982   1.931       .  S
C1968      C1971   1.479       .  S
C1968      C1969   1.406       .  A
C1969      C1970   1.406       .  A
C1969     Br1977   1.933       .  S
C1970     Br1981   1.933       .  S
C1971      C1972   1.406   1_455  A
C1971      C1976   1.406       .  A
C1972      C1973   1.405       .  A
C1972     Br1983   1.932   1_655  S
C1973      C1974   1.415       .  A
C1973     Br1979   1.933       .  S
C1974      C1975   1.416       .  A
C1975      C1976   1.407   1_655  A
C1975     Br1984   1.931       .  S
C1976     Br1980   1.931       .  S
C1985      C1986   1.411       .  A
C1985      C1990   1.412       .  A
C1986      C1987   1.403       .  A
C1986     Br1998   1.932       .  S
C1987      C1988   1.406       .  A
C1987     Br2002   1.931       .  S
C1988      C1991   1.476       .  S
C1988      C1989   1.408       .  A
C1989      C1990   1.405       .  A
C1989     Br1997   1.931       .  S
C1990     Br2001   1.931       .  S
C1991      C1992   1.405       .  A
C1991      C1996   1.404       .  A
C1992      C1993   1.404       .  A
C1992     Br2003   1.934       .  S
C1993      C1994   1.419       .  A
C1993     Br1999   1.935       .  S
C1994      C1995   1.420       .  A
C1995      C1996   1.406       .  A
C1995     Br2004   1.934       .  S
C1996     Br2000   1.932       .  S
C2005      C2006   1.407       .  A
C2005      C2010   1.408       .  A
C2006      C2007   1.403       .  A
C2006     Br2018   1.929       .  S
C2007      C2008   1.408       .  A
C2007     Br2022   1.930       .  S
C2008      C2011   1.480       .  S
C2008      C2009   1.410       .  A
C2009      C2010   1.408       .  A
C2009     Br2017   1.928       .  S
C2010     Br2021   1.929       .  S
C2011      C2012   1.408       .  A
C2011      C2016   1.406       .  A
C2012      C2013   1.407       .  A
C2012     Br2023   1.930       .  S
C2013      C2014   1.413       .  A
C2013     Br2019   1.930       .  S
C2014      C2015   1.415       .  A
C2015      C2016   1.404       .  A
C2015     Br2024   1.934       .  S
C2016     Br2020   1.931       .  S
C2025      C2026   1.420       .  A
C2025      C2030   1.417       .  A
C2026      C2027   1.409       .  A
C2026     Br2038   1.935       .  S
C2027      C2028   1.407       .  A
C2027     Br2042   1.932       .  S
C2028      C2031   1.495       .  S
C2028      C2029   1.411       .  A
C2029      C2030   1.414       .  A
C2029     Br2037   1.930       .  S
C2030     Br2041   1.927       .  S
C2031      C2032   1.408       .  A
C2031      C2036   1.412       .  A
C2032      C2033   1.409       .  A
C2032     Br2043   1.932       .  S
C2033      C2034   1.417       .  A
C2033     Br2039   1.930       .  S
C2034      C2035   1.411       .  A
C2035      C2036   1.414       .  A
C2035     Br2044   1.925       .  S
C2036     Br2040   1.929       .  S
C2045      C2046   1.412       .  A
C2045      C2050   1.411       .  A
C2046      C2047   1.408       .  A
C2046     Br2058   1.932       .  S
C2047      C2048   1.409       .  A
C2047     Br2062   1.930       .  S
C2048      C2051   1.486       .  S
C2048      C2049   1.410       .  A
C2049      C2050   1.408       .  A
C2049     Br2057   1.929       .  S
C2050     Br2061   1.931       .  S
C2051      C2052   1.408       .  A
C2051      C2056   1.410       .  A
C2052      C2053   1.408       .  A
C2052     Br2063   1.930       .  S
C2053      C2054   1.413       .  A
C2053     Br2059   1.930       .  S
C2054      C2055   1.411       .  A
C2055      C2056   1.409       .  A
C2055     Br2064   1.930       .  S
C2056     Br2060   1.930       .  S
C2065      C2066   1.412       .  A
C2065      C2070   1.409       .  A
C2066      C2067   1.409       .  A
C2066     Br2078   1.929       .  S
C2067      C2068   1.409       .  A
C2067     Br2082   1.929       .  S
C2068      C2071   1.484       .  S
C2068      C2069   1.408       .  A
C2069      C2070   1.406       .  A
C2069     Br2077   1.930       .  S
C2070     Br2081   1.922       .  S
C2071      C2072   1.407       .  A
C2071      C2076   1.409       .  A
C2072      C2073   1.407       .  A
C2072     Br2083   1.929       .  S
C2073      C2074   1.413       .  A
C2073     Br2079   1.931       .  S
C2074      C2075   1.413       .  A
C2075      C2076   1.408       .  A
C2075     Br2084   1.932       .  S
C2076     Br2080   1.930       .  S
C2085      C2086   1.418       .  A
C2085      C2090   1.418       .  A
C2086      C2087   1.408       .  A
C2086     Br2098   1.933       .  S
C2087      C2088   1.408       .  A
C2087     Br2102   1.933       .  S
C2088      C2091   1.487       .  S
C2088      C2089   1.407       .  A
C2089      C2090   1.410       .  A
C2089     Br2097   1.931       .  S
C2090     Br2101   1.932       .  S
C2091      C2092   1.407       .  A
C2091      C2096   1.408       .  A
C2092      C2093   1.407       .  A
C2092     Br2103   1.933       .  S
C2093      C2094   1.418       .  A
C2093     Br2099   1.934       .  S
C2094      C2095   1.416       .  A
C2095      C2096   1.410       .  A
C2095     Br2104   1.932       .  S
C2096     Br2100   1.930       .  S
C2105      C2106   1.412       .  A
C2105      C2110   1.410       .  A
C2106      C2107   1.409       .  A
C2106     Br2118   1.931       .  S
C2107      C2108   1.411       .  A
C2107     Br2122   1.930       .  S
C2108      C2111   1.491       .  S
C2108      C2109   1.412       .  A
C2109      C2110   1.409       .  A
C2109     Br2117   1.930       .  S
C2110     Br2121   1.929       .  S
C2111      C2112   1.412       .  A
C2111      C2116   1.409       .  A
C2112      C2113   1.411       .  A
C2112     Br2123   1.931       .  S
C2113      C2114   1.412       .  A
C2113     Br2119   1.929       .  S
C2114      C2115   1.413       .  A
C2115      C2116   1.408       .  A
C2115     Br2124   1.928       .  S
C2116     Br2120   1.931       .  S
C2125      C2126   1.407       .  A
C2125      C2130   1.407       .  A
C2126      C2127   1.405       .  A
C2126     Br2138   1.927       .  S
C2127      C2128   1.409       .  A
C2127     Br2142   1.929       .  S
C2128      C2131   1.482       .  S
C2128      C2129   1.409       .  A
C2129      C2130   1.408       .  A
C2129     Br2137   1.928       .  S
C2130     Br2141   1.923       .  S
C2131      C2132   1.407       .  A
C2131      C2136   1.409       .  A
C2132      C2133   1.407       .  A
C2132     Br2143   1.930       .  S
C2133      C2134   1.414       .  A
C2133     Br2139   1.932       .  S
C2134      C2135   1.412       .  A
C2135      C2136   1.407       .  A
C2135     Br2144   1.932       .  S
C2136     Br2140   1.931       .  S
C2145      C2146   1.420       .  A
C2145      C2150   1.419       .  A
C2146      C2147   1.405   1_565  A
C2146     Br2158   1.935       .  S
C2147      C2148   1.403       .  A
C2147     Br2162   1.931       .  S
C2148      C2151   1.476       .  S
C2148      C2149   1.405   1_545  A
C2149      C2150   1.405       .  A
C2149     Br2157   1.933   1_565  S
C2150     Br2161   1.932       .  S
C2151      C2152   1.406       .  A
C2151      C2156   1.407       .  A
C2152      C2153   1.406       .  A
C2152     Br2163   1.928       .  S
C2153      C2154   1.413       .  A
C2153     Br2159   1.930       .  S
C2154      C2155   1.414       .  A
C2155      C2156   1.401       .  A
C2155     Br2164   1.935       .  S
C2156     Br2160   1.934       .  S
C2165      C2166   1.416       .  A
C2165      C2170   1.415       .  A
C2166      C2167   1.410       .  A
C2166     Br2178   1.932       .  S
C2167      C2168   1.410       .  A
C2167     Br2182   1.932       .  S
C2168      C2171   1.493       .  S
C2168      C2169   1.409       .  A
C2169      C2170   1.411       .  A
C2169     Br2177   1.929       .  S
C2170     Br2181   1.931       .  S
C2171      C2172   1.407       .  A
C2171      C2176   1.408       .  A
C2172      C2173   1.411       .  A
C2172     Br2183   1.930       .  S
C2173      C2174   1.421       .  A
C2173     Br2179   1.933       .  S
C2174      C2175   1.423       .  A
C2175      C2176   1.411       .  A
C2175     Br2184   1.934       .  S
C2176     Br2180   1.934       .  S
C2185      C2186   1.418       .  A
C2185      C2190   1.421       .  A
C2186      C2187   1.410       .  A
C2186     Br2198   1.931       .  S
C2187      C2188   1.408       .  A
C2187     Br2202   1.933       .  S
C2188      C2191   1.487       .  S
C2188      C2189   1.405       .  A
C2189      C2190   1.410       .  A
C2189     Br2197   1.931       .  S
C2190     Br2201   1.933       .  S
C2191      C2192   1.409       .  A
C2191      C2196   1.408       .  A
C2192      C2193   1.410       .  A
C2192     Br2203   1.929       .  S
C2193      C2194   1.414       .  A
C2193     Br2199   1.932       .  S
C2194      C2195   1.411       .  A
C2195      C2196   1.406       .  A
C2195     Br2204   1.931       .  S
C2196     Br2200   1.930       .  S
C2205      C2206   1.408       .  A
C2205      C2210   1.409       .  A
C2206      C2207   1.404       .  A
C2206     Br2218   1.931       .  S
C2207      C2208   1.409       .  A
C2207     Br2222   1.930       .  S
C2208      C2211   1.476       .  S
C2208      C2209   1.407       .  A
C2209      C2210   1.404       .  A
C2209     Br2217   1.929       .  S
C2210     Br2221   1.930       .  S
C2211      C2212   1.407       .  A
C2211      C2216   1.406       .  A
C2212      C2213   1.405       .  A
C2212     Br2223   1.930       .  S
C2213      C2214   1.413       .  A
C2213     Br2219   1.931       .  S
C2214      C2215   1.414       .  A
C2215      C2216   1.403       .  A
C2215     Br2224   1.934       .  S
C2216     Br2220   1.931       .  S
C2225      C2226   1.408       .  A
C2225      C2230   1.409       .  A
C2226      C2227   1.404       .  A
C2226     Br2238   1.928       .  S
C2227      C2228   1.407       .  A
C2227     Br2242   1.930       .  S
C2228      C2231   1.470       .  S
C2228      C2229   1.407       .  A
C2229      C2230   1.400       .  A
C2229     Br2237   1.932       .  S
C2230     Br2241   1.931       .  S
C2231      C2232   1.406       .  A
C2231      C2236   1.404       .  A
C2232      C2233   1.403       .  A
C2232     Br2243   1.931       .  S
C2233      C2234   1.414       .  A
C2233     Br2239   1.934       .  S
C2234      C2235   1.413       .  A
C2235      C2236   1.401       .  A
C2235     Br2244   1.928       .  S
C2236     Br2240   1.932       .  S
C2245      C2246   1.416       .  A
C2245      C2250   1.413       .  A
C2246      C2247   1.405       .  A
C2246     Br2258   1.933       .  S
C2247      C2248   1.408       .  A
C2247     Br2262   1.933       .  S
C2248      C2251   1.475       .  S
C2248      C2249   1.406       .  A
C2249      C2250   1.401       .  A
C2249     Br2257   1.933       .  S
C2250     Br2261   1.933       .  S
C2251      C2252   1.407       .  A
C2251      C2256   1.408       .  A
C2252      C2253   1.403       .  A
C2252     Br2263   1.931       .  S
C2253      C2254   1.413       .  A
C2253     Br2259   1.933       .  S
C2254      C2255   1.416       .  A
C2255      C2256   1.403       .  A
C2255     Br2264   1.935       .  S
C2256     Br2260   1.935       .  S
C2265      C2266   1.413       .  A
C2265      C2270   1.407       .  A
C2266      C2267   1.403       .  A
C2266     Br2278   1.932       .  S
C2267      C2268   1.406       .  A
C2267     Br2282   1.931       .  S
C2268      C2271   1.472       .  S
C2268      C2269   1.407       .  A
C2269      C2270   1.402       .  A
C2269     Br2277   1.930       .  S
C2270     Br2281   1.930       .  S
C2271      C2272   1.406       .  A
C2271      C2276   1.403       .  A
C2272      C2273   1.403       .  A
C2272     Br2283   1.932       .  S
C2273      C2274   1.413       .  A
C2273     Br2279   1.933       .  S
C2274      C2275   1.417       .  A
C2275      C2276   1.403       .  A
C2275     Br2284   1.934       .  S
C2276     Br2280   1.931       .  S
C2285      C2286   1.416       .  A
C2285      C2290   1.418       .  A
C2286      C2287   1.406       .  A
C2286     Br2298   1.933       .  S
C2287      C2288   1.408       .  A
C2287     Br2302   1.933       .  S
C2288      C2291   1.484   1_455  S
C2288      C2289   1.407       .  A
C2289      C2290   1.408       .  A
C2289     Br2297   1.931   1_455  S
C2290     Br2301   1.933       .  S
C2291      C2292   1.408       .  A
C2291      C2296   1.408       .  A
C2292      C2293   1.405       .  A
C2292     Br2303   1.934       .  S
C2293      C2294   1.417       .  A
C2293     Br2299   1.935       .  S
C2294      C2295   1.416       .  A
C2295      C2296   1.409       .  A
C2295     Br2304   1.932       .  S
C2296     Br2300   1.931   1_655  S
C2305      C2306   1.412       .  A
C2305      C2310   1.412       .  A
C2306      C2307   1.405       .  A
C2306     Br2318   1.932       .  S
C2307      C2308   1.407       .  A
C2307     Br2322   1.930       .  S
C2308      C2311   1.479       .  S
C2308      C2309   1.408       .  A
C2309      C2310   1.406       .  A
C2309     Br2317   1.931       .  S
C2310     Br2321   1.932       .  S
C2311      C2312   1.404       .  A
C2311      C2316   1.405       .  A
C2312      C2313   1.407       .  A
C2312     Br2323   1.932       .  S
C2313      C2314   1.420       .  A
C2313     Br2319   1.929       .  S
C2314      C2315   1.419       .  A
C2315      C2316   1.406       .  A
C2315     Br2324   1.935       .  S
C2316     Br2320   1.933       .  S
C2325      C2326   1.409       .  A
C2325      C2330   1.408       .  A
C2326      C2327   1.405       .  A
C2326     Br2338   1.930       .  S
C2327      C2328   1.408       .  A
C2327     Br2342   1.930       .  S
C2328      C2331   1.479       .  S
C2328      C2329   1.409       .  A
C2329      C2330   1.405       .  A
C2329     Br2337   1.929       .  S
C2330     Br2341   1.930       .  S
C2331      C2332   1.406       .  A
C2331      C2336   1.407       .  A
C2332      C2333   1.406       .  A
C2332     Br2343   1.930       .  S
C2333      C2334   1.414       .  A
C2333     Br2339   1.931       .  S
C2334      C2335   1.413       .  A
C2335      C2336   1.405       .  A
C2335     Br2344   1.933       .  S
C2336     Br2340   1.931       .  S
C2345      C2346   1.412       .  A
C2345      C2350   1.411       .  A
C2346      C2347   1.407   1_565  A
C2346     Br2358   1.932       .  S
C2347      C2348   1.411       .  A
C2347     Br2362   1.933       .  S
C2348      C2351   1.486       .  S
C2348      C2349   1.409       .  A
C2349      C2350   1.407   1_545  A
C2349     Br2357   1.929       .  S
C2350     Br2361   1.931       .  S
C2351      C2352   1.407       .  A
C2351      C2356   1.407       .  A
C2352      C2353   1.408       .  A
C2352     Br2363   1.934       .  S
C2353      C2354   1.421       .  A
C2353     Br2359   1.934       .  S
C2354      C2355   1.418       .  A
C2355      C2356   1.408       .  A
C2355     Br2364   1.933       .  S
C2356     Br2360   1.931       .  S
C2365      C2366   1.416       .  A
C2365      C2370   1.415       .  A
C2366      C2367   1.409       .  A
C2366     Br2378   1.933       .  S
C2367      C2368   1.408       .  A
C2367     Br2382   1.931       .  S
C2368      C2371   1.484       .  S
C2368      C2369   1.407       .  A
C2369      C2370   1.406       .  A
C2369     Br2377   1.931       .  S
C2370     Br2381   1.932       .  S
C2371      C2372   1.409       .  A
C2371      C2376   1.409       .  A
C2372      C2373   1.408       .  A
C2372     Br2383   1.930       .  S
C2373      C2374   1.414       .  A
C2373     Br2379   1.932       .  S
C2374      C2375   1.410       .  A
C2375      C2376   1.406       .  A
C2375     Br2384   1.931       .  S
C2376     Br2380   1.930       .  S
C2385      C2386   1.427       .  A
C2385      C2390   1.424       .  A
C2386      C2387   1.405       .  A
C2386     Br2398   1.937       .  S
C2387      C2388   1.403       .  A
C2387     Br2402   1.935   1_554  S
C2388      C2391   1.480       .  S
C2388      C2389   1.404       .  A
C2389      C2390   1.408       .  A
C2389     Br2397   1.932       .  S
C2390     Br2401   1.935       .  S
C2391      C2392   1.409   1_554  A
C2391      C2396   1.408   1_554  A
C2392      C2393   1.404       .  A
C2392     Br2403   1.933   1_556  S
C2393      C2394   1.411       .  A
C2393     Br2399   1.932       .  S
C2394      C2395   1.414       .  A
C2395      C2396   1.408       .  A
C2395     Br2404   1.930       .  S
C2396     Br2400   1.930   1_556  S
C2405      C2406   1.411       .  A
C2405      C2410   1.410       .  A
C2406      C2407   1.405       .  A
C2406     Br2418   1.931       .  S
C2407      C2408   1.408       .  A
C2407     Br2422   1.931       .  S
C2408      C2411   1.480       .  S
C2408      C2409   1.408       .  A
C2409      C2410   1.407       .  A
C2409     Br2417   1.929       .  S
C2410     Br2421   1.929       .  S
C2411      C2412   1.408       .  A
C2411      C2416   1.408       .  A
C2412      C2413   1.407       .  A
C2412     Br2423   1.929       .  S
C2413      C2414   1.412       .  A
C2413     Br2419   1.930       .  S
C2414      C2415   1.412       .  A
C2415      C2416   1.405       .  A
C2415     Br2424   1.932       .  S
C2416     Br2420   1.931       .  S
C2425      C2426   1.408       .  A
C2425      C2430   1.411       .  A
C2426      C2427   1.405       .  A
C2426     Br2438   1.929       .  S
C2427      C2428   1.409       .  A
C2427     Br2442   1.930       .  S
C2428      C2431   1.477       .  S
C2428      C2429   1.407       .  A
C2429      C2430   1.404       .  A
C2429     Br2437   1.931       .  S
C2430     Br2441   1.929       .  S
C2431      C2432   1.406       .  A
C2431      C2436   1.408       .  A
C2432      C2433   1.403       .  A
C2432     Br2443   1.932       .  S
C2433      C2434   1.413       .  A
C2433     Br2439   1.933       .  S
C2434      C2435   1.414       .  A
C2435      C2436   1.407       .  A
C2435     Br2444   1.933       .  S
C2436     Br2440   1.930       .  S
C2445      C2446   1.416       .  A
C2445      C2450   1.419       .  A
C2446      C2447   1.405       .  A
C2446     Br2458   1.933       .  S
C2447      C2448   1.406       .  A
C2447     Br2462   1.930       .  S
C2448      C2451   1.481       .  S
C2448      C2449   1.407       .  A
C2449      C2450   1.408       .  A
C2449     Br2457   1.933       .  S
C2450     Br2461   1.933       .  S
C2451      C2452   1.408       .  A
C2451      C2456   1.407       .  A
C2452      C2453   1.406       .  A
C2452     Br2463   1.933       .  S
C2453      C2454   1.414       .  A
C2453     Br2459   1.933       .  S
C2454      C2455   1.414       .  A
C2455      C2456   1.406       .  A
C2455     Br2464   1.932       .  S
C2456     Br2460   1.930       .  S
C2465      C2466   1.409       .  A
C2465      C2470   1.410       .  A
C2466      C2467   1.401       .  A
C2466     Br2478   1.931       .  S
C2467      C2468   1.407       .  A
C2467     Br2482   1.931       .  S
C2468      C2471   1.468       .  S
C2468      C2469   1.406       .  A
C2469      C2470   1.402       .  A
C2469     Br2477   1.930       .  S
C2470     Br2481   1.931       .  S
C2471      C2472   1.404       .  A
C2471      C2476   1.404       .  A
C2472      C2473   1.405       .  A
C2472     Br2483   1.930       .  S
C2473      C2474   1.416       .  A
C2473     Br2479   1.933       .  S
C2474      C2475   1.417       .  A
C2475      C2476   1.398       .  A
C2475     Br2484   1.938       .  S
C2476     Br2480   1.935       .  S
C2485      C2486   1.418       .  A
C2485      C2490   1.418       .  A
C2486      C2487   1.407       .  A
C2486     Br2498   1.932       .  S
C2487      C2488   1.407       .  A
C2487     Br2502   1.932       .  S
C2488      C2491   1.478       .  S
C2488      C2489   1.404       .  A
C2489      C2490   1.404       .  A
C2489     Br2497   1.932       .  S
C2490     Br2501   1.934       .  S
C2491      C2492   1.408       .  A
C2491      C2496   1.407       .  A
C2492      C2493   1.404       .  A
C2492     Br2503   1.933       .  S
C2493      C2494   1.414       .  A
C2493     Br2499   1.933       .  S
C2494      C2495   1.412       .  A
C2495      C2496   1.406       .  A
C2495     Br2504   1.931       .  S
C2496     Br2500   1.928       .  S
C2505      C2506   1.415       .  A
C2505      C2510   1.412       .  A
C2506      C2507   1.409       .  A
C2506     Br2518   1.931       .  S
C2507      C2508   1.407       .  A
C2507     Br2522   1.929       .  S
C2508      C2511   1.483       .  S
C2508      C2509   1.409       .  A
C2509      C2510   1.406       .  A
C2509     Br2517   1.932       .  S
C2510     Br2521   1.933       .  S
C2511      C2512   1.409       .  A
C2511      C2516   1.410       .  A
C2512      C2513   1.404       .  A
C2512     Br2523   1.929       .  S
C2513      C2514   1.408       .  A
C2513     Br2519   1.930       .  S
C2514      C2515   1.409       .  A
C2515      C2516   1.408       .  A
C2515     Br2524   1.929       .  S
C2516     Br2520   1.928       .  S
C2525      C2526   1.412       .  A
C2525      C2530   1.414       .  A
C2526      C2527   1.403       .  A
C2526     Br2538   1.933       .  S
C2527      C2528   1.409       .  A
C2527     Br2542   1.933       .  S
C2528      C2531   1.477       .  S
C2528      C2529   1.407       .  A
C2529      C2530   1.406       .  A
C2529     Br2537   1.931       .  S
C2530     Br2541   1.932       .  S
C2531      C2532   1.408       .  A
C2531      C2536   1.410       .  A
C2532      C2533   1.404       .  A
C2532     Br2543   1.930       .  S
C2533      C2534   1.409       .  A
C2533     Br2539   1.930       .  S
C2534      C2535   1.407       .  A
C2535      C2536   1.403       .  A
C2535     Br2544   1.932       .  S
C2536     Br2540   1.931       .  S
C2545      C2546   1.408       .  A
C2545      C2550   1.410       .  A
C2546      C2547   1.405       .  A
C2546     Br2558   1.930       .  S
C2547      C2548   1.409   1_565  A
C2547     Br2562   1.929       .  S
C2548      C2551   1.478       .  S
C2548      C2549   1.409       .  A
C2549      C2550   1.403   1_545  A
C2549     Br2557   1.932       .  S
C2550     Br2561   1.932       .  S
C2551      C2552   1.404       .  A
C2551      C2556   1.404       .  A
C2552      C2553   1.405       .  A
C2552     Br2563   1.934       .  S
C2553      C2554   1.419       .  A
C2553     Br2559   1.932       .  S
C2554      C2555   1.422       .  A
C2555      C2556   1.407       .  A
C2555     Br2564   1.931       .  S
C2556     Br2560   1.934       .  S
C2565      C2566   1.417       .  A
C2565      C2570   1.418       .  A
C2566      C2567   1.406       .  A
C2566     Br2578   1.928       .  S
C2567      C2568   1.405       .  A
C2567     Br2582   1.931       .  S
C2568      C2571   1.484       .  S
C2568      C2569   1.408       .  A
C2569      C2570   1.409       .  A
C2569     Br2577   1.931       .  S
C2570     Br2581   1.934       .  S
C2571      C2572   1.406       .  A
C2571      C2576   1.405       .  A
C2572      C2573   1.408       .  A
C2572     Br2583   1.931       .  S
C2573      C2574   1.418       .  A
C2573     Br2579   1.932       .  S
C2574      C2575   1.421       .  A
C2575      C2576   1.408       .  A
C2575     Br2584   1.934       .  S
C2576     Br2580   1.933       .  S
C2585      C2586   1.425       .  A
C2585      C2590   1.422       .  A
C2586      C2587   1.406       .  A
C2586     Br2598   1.934       .  S
C2587      C2588   1.404       .  A
C2587     Br2602   1.937       .  S
C2588      C2591   1.478       .  S
C2588      C2589   1.403       .  A
C2589      C2590   1.407       .  A
C2589     Br2597   1.932       .  S
C2590     Br2601   1.930       .  S
C2591      C2592   1.408       .  A
C2591      C2596   1.408       .  A
C2592      C2593   1.404       .  A
C2592     Br2603   1.930       .  S
C2593      C2594   1.411       .  A
C2593     Br2599   1.932       .  S
C2594      C2595   1.410       .  A
C2595      C2596   1.404       .  A
C2595     Br2604   1.931       .  S
C2596     Br2600   1.931       .  S
C2605      C2606   1.416       .  A
C2605      C2610   1.415       .  A
C2606      C2607   1.403       .  A
C2606     Br2618   1.934       .  S
C2607      C2608   1.406       .  A
C2607     Br2622   1.933       .  S
C2608      C2611   1.478   1_554  S
C2608      C2609   1.407       .  A
C2609      C2610   1.406       .  A
C2609     Br2617   1.930       .  S
C2610     Br2621   1.931       .  S
C2611      C2612   1.404       .  A
C2611      C2616   1.405       .  A
C2612      C2613   1.406       .  A
C2612     Br2623   1.932   1_556  S
C2613      C2614   1.421       .  A
C2613     Br2619   1.934       .  S
C2614      C2615   1.422       .  A
C2615      C2616   1.405       .  A
C2615     Br2624   1.937       .  S
C2616     Br2620   1.935       .  S
C2625      C2626   1.413       .  A
C2625      C2630   1.411       .  A
C2626      C2627   1.400       .  A
C2626     Br2638   1.934       .  S
C2627      C2628   1.407       .  A
C2627     Br2642   1.933       .  S
C2628      C2631   1.471       .  S
C2628      C2629   1.406       .  A
C2629      C2630   1.402       .  A
C2629     Br2637   1.930       .  S
C2630     Br2641   1.932       .  S
C2631      C2632   1.405       .  A
C2631      C2636   1.401       .  A
C2632      C2633   1.403       .  A
C2632     Br2643   1.938       .  S
C2633      C2634   1.423       .  A
C2633     Br2639   1.939       .  S
C2634      C2635   1.426       .  A
C2635      C2636   1.404       .  A
C2635     Br2644   1.934       .  S
C2636     Br2640   1.933       .  S
C2645      C2646   1.423       .  A
C2645      C2650   1.435       .  A
C2646      C2647   1.405       .  A
C2646     Br2658   1.939       .  S
C2647      C2648   1.404       .  A
C2647     Br2662   1.936       .  S
C2648      C2651   1.478       .  S
C2648      C2649   1.400       .  A
C2649      C2650   1.407       .  A
C2649     Br2657   1.936       .  S
C2650     Br2661   1.936       .  S
C2651      C2652   1.404       .  A
C2651      C2656   1.404       .  A
C2652      C2653   1.407       .  A
C2652     Br2663   1.933       .  S
C2653      C2654   1.423       .  A
C2653     Br2659   1.935       .  S
C2654      C2655   1.425       .  A
C2655      C2656   1.403       .  A
C2655     Br2664   1.938       .  S
C2656     Br2660   1.938       .  S
C2665      C2666   1.410       .  A
C2665      C2670   1.411       .  A
C2666      C2667   1.404       .  A
C2666     Br2678   1.930       .  S
C2667      C2668   1.407       .  A
C2667     Br2682   1.930       .  S
C2668      C2671   1.478       .  S
C2668      C2669   1.408       .  A
C2669      C2670   1.406       .  A
C2669     Br2677   1.930       .  S
C2670     Br2681   1.932       .  S
C2671      C2672   1.406       .  A
C2671      C2676   1.408       .  A
C2672      C2673   1.402       .  A
C2672     Br2683   1.933       .  S
C2673      C2674   1.414       .  A
C2673     Br2679   1.935       .  S
C2674      C2675   1.411       .  A
C2675      C2676   1.408       .  A
C2675     Br2684   1.929       .  S
C2676     Br2680   1.929       .  S
C2685      C2686   1.417       .  A
C2685      C2690   1.417       .  A
C2686      C2687   1.407       .  A
C2686     Br2698   1.932       .  S
C2687      C2688   1.406       .  A
C2687     Br2702   1.931   1_655  S
C2688      C2691   1.477   1_655  S
C2688      C2689   1.406       .  A
C2689      C2690   1.404       .  A
C2689     Br2697   1.935       .  S
C2690     Br2701   1.934       .  S
C2691      C2692   1.407       .  A
C2691      C2696   1.407       .  A
C2692      C2693   1.403       .  A
C2692     Br2703   1.932       .  S
C2693      C2694   1.413       .  A
C2693     Br2699   1.934       .  S
C2694      C2695   1.413       .  A
C2695      C2696   1.405       .  A
C2695     Br2704   1.931       .  S
C2696     Br2700   1.930       .  S
C2705      C2706   1.412       .  A
C2705      C2710   1.409       .  A
C2706      C2707   1.408       .  A
C2706     Br2718   1.931       .  S
C2707      C2708   1.409       .  A
C2707     Br2722   1.929       .  S
C2708      C2711   1.483       .  S
C2708      C2709   1.409       .  A
C2709      C2710   1.405       .  A
C2709     Br2717   1.929       .  S
C2710     Br2721   1.930       .  S
C2711      C2712   1.404       .  A
C2711      C2716   1.409       .  A
C2712      C2713   1.406       .  A
C2712     Br2723   1.932       .  S
C2713      C2714   1.419       .  A
C2713     Br2719   1.934       .  S
C2714      C2715   1.415       .  A
C2715      C2716   1.410       .  A
C2715     Br2724   1.927       .  S
C2716     Br2720   1.932       .  S
C2725      C2726   1.416       .  A
C2725      C2730   1.412       .  A
C2726      C2727   1.409       .  A
C2726     Br2738   1.933       .  S
C2727      C2728   1.410       .  A
C2727     Br2742   1.932       .  S
C2728      C2731   1.487       .  S
C2728      C2729   1.408       .  A
C2729      C2730   1.407       .  A
C2729     Br2737   1.929       .  S
C2730     Br2741   1.931       .  S
C2731      C2732   1.407       .  A
C2731      C2736   1.407       .  A
C2732      C2733   1.408       .  A
C2732     Br2743   1.934       .  S
C2733      C2734   1.419       .  A
C2733     Br2739   1.931       .  S
C2734      C2735   1.419       .  A
C2735      C2736   1.411       .  A
C2735     Br2744   1.931       .  S
C2736     Br2740   1.931       .  S
C2745      C2746   1.411       .  A
C2745      C2750   1.407       .  A
C2746      C2747   1.406       .  A
C2746     Br2758   1.930       .  S
C2747      C2748   1.408       .  A
C2747     Br2762   1.931       .  S
C2748      C2751   1.480       .  S
C2748      C2749   1.410       .  A
C2749      C2750   1.405       .  A
C2749     Br2757   1.930       .  S
C2750     Br2761   1.929       .  S
C2751      C2752   1.410       .  A
C2751      C2756   1.407       .  A
C2752      C2753   1.405       .  A
C2752     Br2763   1.931       .  S
C2753      C2754   1.411       .  A
C2753     Br2759   1.933       .  S
C2754      C2755   1.412       .  A
C2755      C2756   1.405       .  A
C2755     Br2764   1.933       .  S
C2756     Br2760   1.930       .  S
C2765      C2766   1.416       .  A
C2765      C2770   1.417       .  A
C2766      C2767   1.406       .  A
C2766     Br2778   1.934       .  S
C2767      C2768   1.407       .  A
C2767     Br2782   1.932       .  S
C2768      C2771   1.483       .  S
C2768      C2769   1.407       .  A
C2769      C2770   1.408       .  A
C2769     Br2777   1.931       .  S
C2770     Br2781   1.933       .  S
C2771      C2772   1.409       .  A
C2771      C2776   1.408       .  A
C2772      C2773   1.408       .  A
C2772     Br2783   1.930       .  S
C2773      C2774   1.411       .  A
C2773     Br2779   1.930       .  S
C2774      C2775   1.411       .  A
C2775      C2776   1.407       .  A
C2775     Br2784   1.927       .  S
C2776     Br2780   1.931       .  S
C2785      C2786   1.412       .  A
C2785      C2790   1.411       .  A
C2786      C2787   1.401       .  A
C2786     Br2798   1.932       .  S
C2787      C2788   1.406       .  A
C2787     Br2802   1.931       .  S
C2788      C2791   1.474       .  S
C2788      C2789   1.408       .  A
C2789      C2790   1.405       .  A
C2789     Br2797   1.930       .  S
C2790     Br2801   1.931       .  S
C2791      C2792   1.402       .  A
C2791      C2796   1.402       .  A
C2792      C2793   1.404       .  A
C2792     Br2803   1.934       .  S
C2793      C2794   1.422       .  A
C2793     Br2799   1.935   1_565  S
C2794      C2795   1.427       .  A
C2795      C2796   1.407       .  A
C2795     Br2804   1.935       .  S
C2796     Br2800   1.935       .  S
C2805      C2806   1.413       .  A
C2805      C2810   1.414       .  A
C2806      C2807   1.411       .  A
C2806     Br2818   1.931       .  S
C2807      C2808   1.409       .  A
C2807     Br2822   1.929       .  S
C2808      C2811   1.487       .  S
C2808      C2809   1.408       .  A
C2809      C2810   1.407       .  A
C2809     Br2817   1.932       .  S
C2810     Br2821   1.932       .  S
C2811      C2812   1.410       .  A
C2811      C2816   1.409       .  A
C2812      C2813   1.408       .  A
C2812     Br2823   1.929       .  S
C2813      C2814   1.410       .  A
C2813     Br2819   1.930       .  S
C2814      C2815   1.415       .  A
C2815      C2816   1.409       .  A
C2815     Br2824   1.933       .  S
C2816     Br2820   1.930       .  S
C2825      C2826   1.407   1_565  A
C2825      C2830   1.409       .  A
C2826      C2827   1.405       .  A
C2826     Br2838   1.930       .  S
C2827      C2828   1.409   1_545  A
C2827     Br2842   1.928       .  S
C2828      C2831   1.476       .  S
C2828      C2829   1.408       .  A
C2829      C2830   1.402       .  A
C2829     Br2837   1.931       .  S
C2830     Br2841   1.931       .  S
C2831      C2832   1.407   1_565  A
C2831      C2836   1.407       .  A
C2832      C2833   1.404       .  A
C2832     Br2843   1.932       .  S
C2833      C2834   1.414   1_545  A
C2833     Br2839   1.933       .  S
C2834      C2835   1.412       .  A
C2835      C2836   1.405       .  A
C2835     Br2844   1.931       .  S
C2836     Br2840   1.931       .  S
C2845      C2846   1.407       .  A
C2845      C2850   1.409       .  A
C2846      C2847   1.406       .  A
C2846     Br2858   1.931       .  S
C2847      C2848   1.410       .  A
C2847     Br2862   1.927       .  S
C2848      C2851   1.479       .  S
C2848      C2849   1.409       .  A
C2849      C2850   1.404       .  A
C2849     Br2857   1.931       .  S
C2850     Br2861   1.931       .  S
C2851      C2852   1.408       .  A
C2851      C2856   1.408       .  A
C2852      C2853   1.404       .  A
C2852     Br2863   1.932       .  S
C2853      C2854   1.412       .  A
C2853     Br2859   1.932       .  S
C2854      C2855   1.411       .  A
C2855      C2856   1.408       .  A
C2855     Br2864   1.929       .  S
C2856     Br2860   1.929       .  S
C2865      C2866   1.409       .  A
C2865      C2870   1.414       .  A
C2866      C2867   1.406       .  A
C2866     Br2878   1.929       .  S
C2867      C2868   1.408       .  A
C2867     Br2882   1.930       .  S
C2868      C2871   1.480       .  S
C2868      C2869   1.407       .  A
C2869      C2870   1.407       .  A
C2869     Br2877   1.931       .  S
C2870     Br2881   1.931       .  S
C2871      C2872   1.406       .  A
C2871      C2876   1.408       .  A
C2872      C2873   1.405       .  A
C2872     Br2883   1.930       .  S
C2873      C2874   1.415       .  A
C2873     Br2879   1.934       .  S
C2874      C2875   1.414       .  A
C2875      C2876   1.407       .  A
C2875     Br2884   1.932       .  S
C2876     Br2880   1.931       .  S
C2885      C2886   1.413       .  A
C2885      C2890   1.411       .  A
C2886      C2887   1.404       .  A
C2886     Br2898   1.934       .  S
C2887      C2888   1.408       .  A
C2887     Br2902   1.932       .  S
C2888      C2891   1.482       .  S
C2888      C2889   1.410       .  A
C2889      C2890   1.408       .  A
C2889     Br2897   1.930       .  S
C2890     Br2901   1.931       .  S
C2891      C2892   1.408       .  A
C2891      C2896   1.410       .  A
C2892      C2893   1.405       .  A
C2892     Br2903   1.932       .  S
C2893      C2894   1.413       .  A
C2893     Br2899   1.933       .  S
C2894      C2895   1.409       .  A
C2895      C2896   1.407       .  A
C2895     Br2904   1.930       .  S
C2896     Br2900   1.930       .  S
C2905      C2906   1.415       .  A
C2905      C2910   1.417       .  A
C2906      C2907   1.409       .  A
C2906     Br2918   1.927       .  S
C2907      C2908   1.407       .  A
C2907     Br2922   1.930       .  S
C2908      C2911   1.483       .  S
C2908      C2909   1.406       .  A
C2909      C2910   1.406       .  A
C2909     Br2917   1.931       .  S
C2910     Br2921   1.935       .  S
C2911      C2912   1.408       .  A
C2911      C2916   1.409       .  A
C2912      C2913   1.407       .  A
C2912     Br2923   1.929   1_655  S
C2913      C2914   1.410       .  A
C2913     Br2919   1.930       .  S
C2914      C2915   1.411       .  A
C2915      C2916   1.407       .  A
C2915     Br2924   1.931       .  S
C2916     Br2920   1.931       .  S
C2925      C2926   1.421       .  A
C2925      C2930   1.418       .  A
C2926      C2927   1.406       .  A
C2926     Br2938   1.935       .  S
C2927      C2928   1.404       .  A
C2927     Br2942   1.932       .  S
C2928      C2931   1.480       .  S
C2928      C2929   1.406       .  A
C2929      C2930   1.406       .  A
C2929     Br2937   1.934       .  S
C2930     Br2941   1.929       .  S
C2931      C2932   1.403       .  A
C2931      C2936   1.404       .  A
C2932      C2933   1.405       .  A
C2932     Br2943   1.934       .  S
C2933      C2934   1.425       .  A
C2933     Br2939   1.937       .  S
C2934      C2935   1.426       .  A
C2935      C2936   1.408       .  A
C2935     Br2944   1.937       .  S
C2936     Br2940   1.934       .  S
C2945      C2946   1.416       .  A
C2945      C2950   1.418       .  A
C2946      C2947   1.404       .  A
C2946     Br2958   1.931       .  S
C2947      C2948   1.406       .  A
C2947     Br2962   1.934       .  S
C2948      C2951   1.477       .  S
C2948      C2949   1.405       .  A
C2949      C2950   1.406       .  A
C2949     Br2957   1.932       .  S
C2950     Br2961   1.933   1_565  S
C2951      C2952   1.407       .  A
C2951      C2956   1.405       .  A
C2952      C2953   1.404       .  A
C2952     Br2963   1.931       .  S
C2953      C2954   1.414       .  A
C2953     Br2959   1.933       .  S
C2954      C2955   1.418       .  A
C2955      C2956   1.404       .  A
C2955     Br2964   1.935       .  S
C2956     Br2960   1.932       .  S
C2965      C2966   1.407       .  A
C2965      C2970   1.409       .  A
C2966      C2967   1.407       .  A
C2966     Br2978   1.924       .  S
C2967      C2968   1.408       .  A
C2967     Br2982   1.928       .  S
C2968      C2971   1.479       .  S
C2968      C2969   1.408       .  A
C2969      C2970   1.404       .  A
C2969     Br2977   1.930       .  S
C2970     Br2981   1.929       .  S
C2971      C2972   1.408       .  A
C2971      C2976   1.408       .  A
C2972      C2973   1.409       .  A
C2972     Br2983   1.928       .  S
C2973      C2974   1.413       .  A
C2973     Br2979   1.930       .  S
C2974      C2975   1.410       .  A
C2975      C2976   1.403       .  A
C2975     Br2984   1.932       .  S
C2976     Br2980   1.933       .  S
C2985      C2986   1.406       .  A
C2985      C2990   1.412       .  A
C2986      C2987   1.404       .  A
C2986     Br2998   1.924       .  S
C2987      C2988   1.409       .  A
C2987     Br3002   1.930       .  S
C2988      C2991   1.482       .  S
C2988      C2989   1.409       .  A
C2989      C2990   1.408       .  A
C2989     Br2997   1.928       .  S
C2990     Br3001   1.930       .  S
C2991      C2992   1.406       .  A
C2991      C2996   1.411       .  A
C2992      C2993   1.407       .  A
C2992     Br3003   1.929       .  S
C2993      C2994   1.411       .  A
C2993     Br2999   1.925       .  S
C2994      C2995   1.410       .  A
C2995      C2996   1.407       .  A
C2995     Br3004   1.930       .  S
C2996     Br3000   1.931       .  S
C3005      C3006   1.419       .  A
C3005      C3010   1.417       .  A
C3006      C3007   1.405       .  A
C3006     Br3018   1.935       .  S
C3007      C3008   1.405       .  A
C3007     Br3022   1.932       .  S
C3008      C3011   1.482       .  S
C3008      C3009   1.408       .  A
C3009      C3010   1.409       .  A
C3009     Br3017   1.931       .  S
C3010     Br3021   1.933       .  S
C3011      C3012   1.409       .  A
C3011      C3016   1.409       .  A
C3012      C3013   1.406       .  A
C3012     Br3023   1.930       .  S
C3013      C3014   1.409       .  A
C3013     Br3019   1.929       .  S
C3014      C3015   1.409       .  A
C3015      C3016   1.407       .  A
C3015     Br3024   1.929       .  S
C3016     Br3020   1.929       .  S
C3025      C3026   1.413       .  A
C3025      C3030   1.419       .  A
C3026      C3027   1.408       .  A
C3026     Br3038   1.924       .  S
C3027      C3028   1.408       .  A
C3027     Br3042   1.931       .  S
C3028      C3031   1.483       .  S
C3028      C3029   1.405       .  A
C3029      C3030   1.407       .  A
C3029     Br3037   1.931       .  S
C3030     Br3041   1.934       .  S
C3031      C3032   1.407       .  A
C3031      C3036   1.410       .  A
C3032      C3033   1.405       .  A
C3032     Br3043   1.931       .  S
C3033      C3034   1.411       .  A
C3033     Br3039   1.929       .  S
C3034      C3035   1.410       .  A
C3035      C3036   1.409       .  A
C3035     Br3044   1.928       .  S
C3036     Br3040   1.928       .  S
C3045      C3046   1.414       .  A
C3045      C3050   1.413   1_655  A
C3046      C3047   1.407       .  A
C3046     Br3058   1.933       .  S
C3047      C3048   1.410       .  A
C3047     Br3062   1.933       .  S
C3048      C3051   1.486       .  S
C3048      C3049   1.409   1_655  A
C3049      C3050   1.408       .  A
C3049     Br3057   1.930       .  S
C3050     Br3061   1.932       .  S
C3051      C3052   1.406   1_655  A
C3051      C3056   1.408       .  A
C3052      C3053   1.406       .  A
C3052     Br3063   1.932       .  S
C3053      C3054   1.419   1_455  A
C3053     Br3059   1.934   1_545  S
C3054      C3055   1.422       .  A
C3055      C3056   1.411       .  A
C3055     Br3064   1.933       .  S
C3056     Br3060   1.933       .  S
C3065      C3066   1.408       .  A
C3065      C3070   1.412       .  A
C3066      C3067   1.403       .  A
C3066     Br3078   1.930       .  S
C3067      C3068   1.407       .  A
C3067     Br3082   1.929       .  S
C3068      C3071   1.472       .  S
C3068      C3069   1.406       .  A
C3069      C3070   1.403       .  A
C3069     Br3077   1.932       .  S
C3070     Br3081   1.932       .  S
C3071      C3072   1.407       .  A
C3071      C3076   1.406       .  A
C3072      C3073   1.404       .  A
C3072     Br3083   1.929       .  S
C3073      C3074   1.409       .  A
C3073     Br3079   1.931       .  S
C3074      C3075   1.411       .  A
C3075      C3076   1.401       .  A
C3075     Br3084   1.934       .  S
C3076     Br3080   1.931       .  S
C3085      C3086   1.417       .  A
C3085      C3090   1.414       .  A
C3086      C3087   1.408       .  A
C3086     Br3098   1.933       .  S
C3087      C3088   1.406       .  A
C3087     Br3102   1.930       .  S
C3088      C3091   1.488       .  S
C3088      C3089   1.410       .  A
C3089      C3090   1.410       .  A
C3089     Br3097   1.930       .  S
C3090     Br3101   1.931       .  S
C3091      C3092   1.410       .  A
C3091      C3096   1.409       .  A
C3092      C3093   1.410       .  A
C3092     Br3103   1.930       .  S
C3093      C3094   1.412       .  A
C3093     Br3099   1.930       .  S
C3094      C3095   1.410       .  A
C3095      C3096   1.408       .  A
C3095     Br3104   1.930       .  S
C3096     Br3100   1.928       .  S
C3105      C3106   1.410       .  A
C3105      C3110   1.412       .  A
C3106      C3107   1.404       .  A
C3106     Br3118   1.932       .  S
C3107      C3108   1.408       .  A
C3107     Br3122   1.931       .  S
C3108      C3111   1.478       .  S
C3108      C3109   1.407       .  A
C3109      C3110   1.406       .  A
C3109     Br3117   1.929       .  S
C3110     Br3121   1.932       .  S
C3111      C3112   1.408       .  A
C3111      C3116   1.408       .  A
C3112      C3113   1.406       .  A
C3112     Br3123   1.929       .  S
C3113      C3114   1.410       .  A
C3113     Br3119   1.930       .  S
C3114      C3115   1.411       .  A
C3115      C3116   1.405       .  A
C3115     Br3124   1.931       .  S
C3116     Br3120   1.931       .  S
C3125      C3126   1.420       .  A
C3125      C3130   1.421       .  A
C3126      C3127   1.406       .  A
C3126     Br3138   1.932       .  S
C3127      C3128   1.405       .  A
C3127     Br3142   1.934       .  S
C3128      C3131   1.479       .  S
C3128      C3129   1.404       .  A
C3129      C3130   1.407       .  A
C3129     Br3137   1.932       .  S
C3130     Br3141   1.934       .  S
C3131      C3132   1.408       .  A
C3131      C3136   1.409       .  A
C3132      C3133   1.405       .  A
C3132     Br3143   1.930       .  S
C3133      C3134   1.410       .  A
C3133     Br3139   1.931   1_565  S
C3134      C3135   1.408       .  A
C3135      C3136   1.405       .  A
C3135     Br3144   1.930       .  S
C3136     Br3140   1.930   1_556  S
C3145      C3146   1.411       .  A
C3145      C3150   1.412       .  A
C3146      C3147   1.407       .  A
C3146     Br3158   1.932       .  S
C3147      C3148   1.409       .  A
C3147     Br3162   1.929       .  S
C3148      C3151   1.481       .  S
C3148      C3149   1.407       .  A
C3149      C3150   1.404       .  A
C3149     Br3157   1.931       .  S
C3150     Br3161   1.931       .  S
C3151      C3152   1.402       .  A
C3151      C3156   1.405       .  A
C3152      C3153   1.408       .  A
C3152     Br3163   1.933       .  S
C3153      C3154   1.425       .  A
C3153     Br3159   1.933       .  S
C3154      C3155   1.424       .  A
C3155      C3156   1.408       .  A
C3155     Br3164   1.933       .  S
C3156     Br3160   1.935       .  S
C3165      C3166   1.417       .  A
C3165      C3170   1.423       .  A
C3166      C3167   1.407       .  A
C3166     Br3178   1.929   1_455  S
C3167      C3168   1.407       .  A
C3167     Br3182   1.932   1_445  S
C3168      C3171   1.481       .  S
C3168      C3169   1.405       .  A
C3169      C3170   1.406       .  A
C3169     Br3177   1.935       .  S
C3170     Br3181   1.936       .  S
C3171      C3172   1.408   1_545  A
C3171      C3176   1.410       .  A
C3172      C3173   1.402       .  A
C3172     Br3183   1.934       .  S
C3173      C3174   1.413       .  A
C3173     Br3179   1.934       .  S
C3174      C3175   1.410   1_565  A
C3175      C3176   1.408       .  A
C3175     Br3184   1.927   1_455  S
C3176     Br3180   1.929   1_455  S
C3185      C3186   1.413       .  A
C3185      C3190   1.416       .  A
C3186      C3187   1.404       .  A
C3186     Br3198   1.932       .  S
C3187      C3188   1.406       .  A
C3187     Br3202   1.929       .  S
C3188      C3191   1.477       .  S
C3188      C3189   1.406       .  A
C3189      C3190   1.405       .  A
C3189     Br3197   1.931       .  S
C3190     Br3201   1.933       .  S
C3191      C3192   1.403       .  A
C3191      C3196   1.401       .  A
C3192      C3193   1.404       .  A
C3192     Br3203   1.936       .  S
C3193      C3194   1.426       .  A
C3193     Br3199   1.937       .  S
C3194      C3195   1.427       .  A
C3195      C3196   1.408       .  A
C3195     Br3204   1.934       .  S
C3196     Br3200   1.933       .  S
C3205      C3206   1.412       .  A
C3205      C3210   1.412       .  A
C3206      C3207   1.401       .  A
C3206     Br3218   1.933       .  S
C3207      C3208   1.406       .  A
C3207     Br3222   1.932       .  S
C3208      C3211   1.470       .  S
C3208      C3209   1.406       .  A
C3209      C3210   1.403       .  A
C3209     Br3217   1.931       .  S
C3210     Br3221   1.933       .  S
C3211      C3212   1.408       .  A
C3211      C3216   1.407       .  A
C3212      C3213   1.404       .  A
C3212     Br3223   1.929       .  S
C3213      C3214   1.407       .  A
C3213     Br3219   1.929       .  S
C3214      C3215   1.408       .  A
C3215      C3216   1.399       .  A
C3215     Br3224   1.931       .  S
C3216     Br3220   1.933       .  S
C3225      C3226   1.409       .  A
C3225      C3230   1.411       .  A
C3226      C3227   1.408       .  A
C3226     Br3238   1.930   1_565  S
C3227      C3228   1.411       .  A
C3227     Br3242   1.929   1_565  S
C3228      C3231   1.483       .  S
C3228      C3229   1.407       .  A
C3229      C3230   1.405       .  A
C3229     Br3237   1.930       .  S
C3230     Br3241   1.929       .  S
C3231      C3232   1.407       .  A
C3231      C3236   1.411       .  A
C3232      C3233   1.406       .  A
C3232     Br3243   1.930       .  S
C3233      C3234   1.411       .  A
C3233     Br3239   1.925   1_655  S
C3234      C3235   1.407       .  A
C3235      C3236   1.408       .  A
C3235     Br3244   1.925       .  S
C3236     Br3240   1.930       .  S
C3245      C3246   1.410       .  A
C3245      C3250   1.407       .  A
C3246      C3247   1.408       .  A
C3246     Br3258   1.927       .  S
C3247      C3248   1.409       .  A
C3247     Br3262   1.928       .  S
C3248      C3251   1.484       .  S
C3248      C3249   1.410       .  A
C3249      C3250   1.406       .  A
C3249     Br3257   1.930       .  S
C3250     Br3261   1.927       .  S
C3251      C3252   1.407       .  A
C3251      C3256   1.406       .  A
C3252      C3253   1.409       .  A
C3252     Br3263   1.930       .  S
C3253      C3254   1.417       .  A
C3253     Br3259   1.932       .  S
C3254      C3255   1.419       .  A
C3255      C3256   1.407       .  A
C3255     Br3264   1.933       .  S
C3256     Br3260   1.932       .  S
C3265      C3266   1.409       .  A
C3265      C3270   1.405       .  A
C3266      C3267   1.406       .  A
C3266     Br3278   1.928       .  S
C3267      C3268   1.410       .  A
C3267     Br3282   1.930       .  S
C3268      C3271   1.478       .  S
C3268      C3269   1.407       .  A
C3269      C3270   1.403       .  A
C3269     Br3277   1.930       .  S
C3270     Br3281   1.920       .  S
C3271      C3272   1.408       .  A
C3271      C3276   1.406       .  A
C3272      C3273   1.405       .  A
C3272     Br3283   1.931       .  S
C3273      C3274   1.413       .  A
C3273     Br3279   1.934   1_655  S
C3274      C3275   1.416       .  A
C3275      C3276   1.406       .  A
C3275     Br3284   1.933       .  S
C3276     Br3280   1.932       .  S
C3285      C3286   1.413       .  A
C3285      C3290   1.411       .  A
C3286      C3287   1.404       .  A
C3286     Br3298   1.933       .  S
C3287      C3288   1.406       .  A
C3287     Br3302   1.930       .  S
C3288      C3291   1.479       .  S
C3288      C3289   1.409       .  A
C3289      C3290   1.407       .  A
C3289     Br3297   1.930       .  S
C3290     Br3301   1.930       .  S
C3291      C3292   1.405       .  A
C3291      C3296   1.402       .  A
C3292      C3293   1.408       .  A
C3292     Br3303   1.933       .  S
C3293      C3294   1.421       .  A
C3293     Br3299   1.934       .  S
C3294      C3295   1.424       .  A
C3295      C3296   1.406       .  A
C3295     Br3304   1.936       .  S
C3296     Br3300   1.934       .  S
C3305      C3306   1.412       .  A
C3305      C3310   1.410       .  A
C3306      C3307   1.411       .  A
C3306     Br3318   1.930       .  S
C3307      C3308   1.410       .  A
C3307     Br3322   1.929       .  S
C3308      C3311   1.483       .  S
C3308      C3309   1.408       .  A
C3309      C3310   1.403       .  A
C3309     Br3317   1.934       .  S
C3310     Br3321   1.925       .  S
C3311      C3312   1.408       .  A
C3311      C3316   1.409       .  A
C3312      C3313   1.406       .  A
C3312     Br3323   1.931       .  S
C3313      C3314   1.414       .  A
C3313     Br3319   1.933       .  S
C3314      C3315   1.412       .  A
C3315      C3316   1.407       .  A
C3315     Br3324   1.931       .  S
C3316     Br3320   1.931       .  S
C3325      C3326   1.412   1_554  A
C3325      C3330   1.413   1_545  A
C3326      C3327   1.407   1_556  A
C3326     Br3338   1.929       .  S
C3327      C3328   1.408       .  A
C3327     Br3342   1.929       .  S
C3328      C3331   1.483       .  S
C3328      C3329   1.408   1_545  A
C3329      C3330   1.406       .  A
C3329     Br3337   1.932       .  S
C3330     Br3341   1.932       .  S
C3331      C3332   1.403       .  A
C3331      C3336   1.403       .  A
C3332      C3333   1.408       .  A
C3332     Br3343   1.935   1_544  S
C3333      C3334   1.427       .  A
C3333     Br3339   1.936   1_545  S
C3334      C3335   1.427       .  A
C3335      C3336   1.409       .  A
C3335     Br3344   1.936       .  S
C3336     Br3340   1.933       .  S
C3345      C3346   1.417       .  A
C3345      C3350   1.413       .  A
C3346      C3347   1.406       .  A
C3346     Br3358   1.934       .  S
C3347      C3348   1.406       .  A
C3347     Br3362   1.931       .  S
C3348      C3351   1.482       .  S
C3348      C3349   1.409       .  A
C3349      C3350   1.407       .  A
C3349     Br3357   1.931       .  S
C3350     Br3361   1.931       .  S
C3351      C3352   1.408       .  A
C3351      C3356   1.410       .  A
C3352      C3353   1.404       .  A
C3352     Br3363   1.931       .  S
C3353      C3354   1.411       .  A
C3353     Br3359   1.931       .  S
C3354      C3355   1.410       .  A
C3355      C3356   1.408       .  A
C3355     Br3364   1.930       .  S
C3356     Br3360   1.929       .  S
C3365      C3366   1.408       .  A
C3365      C3370   1.412       .  A
C3366      C3367   1.408       .  A
C3366     Br3378   1.928   1_556  S
C3367      C3368   1.410       .  A
C3367     Br3382   1.929   1_556  S
C3368      C3371   1.482       .  S
C3368      C3369   1.407       .  A
C3369      C3370   1.405       .  A
C3369     Br3377   1.931       .  S
C3370     Br3381   1.930       .  S
C3371      C3372   1.409       .  A
C3371      C3376   1.407       .  A
C3372      C3373   1.408       .  A
C3372     Br3383   1.930   1_556  S
C3373      C3374   1.412       .  A
C3373     Br3379   1.931   1_556  S
C3374      C3375   1.413       .  A
C3375      C3376   1.406       .  A
C3375     Br3384   1.932       .  S
C3376     Br3380   1.930       .  S
C3385      C3386   1.411       .  A
C3385      C3390   1.412       .  A
C3386      C3387   1.409       .  A
C3386     Br3398   1.931       .  S
C3387      C3388   1.409       .  A
C3387     Br3402   1.928       .  S
C3388      C3391   1.485       .  S
C3388      C3389   1.409       .  A
C3389      C3390   1.406       .  A
C3389     Br3397   1.931       .  S
C3390     Br3401   1.932       .  S
C3391      C3392   1.408       .  A
C3391      C3396   1.409       .  A
C3392      C3393   1.406       .  A
C3392     Br3403   1.931       .  S
C3393      C3394   1.413       .  A
C3393     Br3399   1.932       .  S
C3394      C3395   1.413       .  A
C3395      C3396   1.410       .  A
C3395     Br3404   1.930       .  S
C3396     Br3400   1.929       .  S
C3405      C3406   1.416       .  A
C3405      C3410   1.411       .  A
C3406      C3407   1.408       .  A
C3406     Br3418   1.932       .  S
C3407      C3408   1.407       .  A
C3407     Br3422   1.931       .  S
C3408      C3411   1.482       .  S
C3408      C3409   1.409       .  A
C3409      C3410   1.406       .  A
C3409     Br3417   1.932       .  S
C3410     Br3421   1.930       .  S
C3411      C3412   1.408       .  A
C3411      C3416   1.407       .  A
C3412      C3413   1.405       .  A
C3412     Br3423   1.932       .  S
C3413      C3414   1.415       .  A
C3413     Br3419   1.934       .  S
C3414      C3415   1.414       .  A
C3415      C3416   1.407       .  A
C3415     Br3424   1.933       .  S
C3416     Br3420   1.929       .  S
C3425      C3426   1.412       .  A
C3425      C3430   1.412       .  A
C3426      C3427   1.407       .  A
C3426     Br3438   1.930       .  S
C3427      C3428   1.407       .  A
C3427     Br3442   1.929   1_565  S
C3428      C3431   1.480       .  S
C3428      C3429   1.408       .  A
C3429      C3430   1.406       .  A
C3429     Br3437   1.931       .  S
C3430     Br3441   1.932       .  S
C3431      C3432   1.408       .  A
C3431      C3436   1.408       .  A
C3432      C3433   1.407       .  A
C3432     Br3443   1.928       .  S
C3433      C3434   1.410       .  A
C3433     Br3439   1.931       .  S
C3434      C3435   1.411       .  A
C3435      C3436   1.405       .  A
C3435     Br3444   1.932       .  S
C3436     Br3440   1.931       .  S
C3445      C3446   1.407       .  A
C3445      C3450   1.410       .  A
C3446      C3447   1.408       .  A
C3446     Br3458   1.927   1_565  S
C3447      C3448   1.410       .  A
C3447     Br3462   1.928   1_565  S
C3448      C3451   1.479       .  S
C3448      C3449   1.406       .  A
C3449      C3450   1.402       .  A
C3449     Br3457   1.931       .  S
C3450     Br3461   1.926       .  S
C3451      C3452   1.407       .  A
C3451      C3456   1.408       .  A
C3452      C3453   1.404       .  A
C3452     Br3463   1.930       .  S
C3453      C3454   1.411       .  A
C3453     Br3459   1.932       .  S
C3454      C3455   1.413       .  A
C3455      C3456   1.407       .  A
C3455     Br3464   1.932   1_565  S
C3456     Br3460   1.930   1_565  S
C3465      C3466   1.412       .  A
C3465      C3470   1.411       .  A
C3466      C3467   1.403       .  A
C3466     Br3478   1.933       .  S
C3467      C3468   1.407       .  A
C3467     Br3482   1.931       .  S
C3468      C3471   1.478       .  S
C3468      C3469   1.409       .  A
C3469      C3470   1.407       .  A
C3469     Br3477   1.929       .  S
C3470     Br3481   1.930       .  S
C3471      C3472   1.407       .  A
C3471      C3476   1.409       .  A
C3472      C3473   1.402       .  A
C3472     Br3483   1.931       .  S
C3473      C3474   1.411       .  A
C3473     Br3479   1.933       .  S
C3474      C3475   1.410       .  A
C3475      C3476   1.407       .  A
C3475     Br3484   1.930       .  S
C3476     Br3480   1.928       .  S
C3485      C3486   1.415       .  A
C3485      C3490   1.417       .  A
C3486      C3487   1.408       .  A
C3486     Br3498   1.931       .  S
C3487      C3488   1.408       .  A
C3487     Br3502   1.930       .  S
C3488      C3491   1.487       .  S
C3488      C3489   1.408       .  A
C3489      C3490   1.408       .  A
C3489     Br3497   1.931   1_554  S
C3490     Br3501   1.934       .  S
C3491      C3492   1.405   1_554  A
C3491      C3496   1.406       .  A
C3492      C3493   1.409       .  A
C3492     Br3503   1.932       .  S
C3493      C3494   1.421       .  A
C3493     Br3499   1.933       .  S
C3494      C3495   1.423   1_556  A
C3495      C3496   1.410       .  A
C3495     Br3504   1.934       .  S
C3496     Br3500   1.934       .  S
C3505      C3506   1.415       .  A
C3505      C3510   1.417       .  A
C3506      C3507   1.407       .  A
C3506     Br3518   1.933       .  S
C3507      C3508   1.408       .  A
C3507     Br3522   1.932       .  S
C3508      C3511   1.482       .  S
C3508      C3509   1.406       .  A
C3509      C3510   1.408       .  A
C3509     Br3517   1.930       .  S
C3510     Br3521   1.933       .  S
C3511      C3512   1.410       .  A
C3511      C3516   1.409       .  A
C3512      C3513   1.406       .  A
C3512     Br3523   1.929       .  S
C3513      C3514   1.407       .  A
C3513     Br3519   1.929       .  S
C3514      C3515   1.409       .  A
C3515      C3516   1.406       .  A
C3515     Br3524   1.930       .  S
C3516     Br3520   1.929       .  S
C3525      C3526   1.415       .  A
C3525      C3530   1.414       .  A
C3526      C3527   1.401       .  A
C3526     Br3538   1.934       .  S
C3527      C3528   1.405       .  A
C3527     Br3542   1.934       .  S
C3528      C3531   1.470       .  S
C3528      C3529   1.405       .  A
C3529      C3530   1.403       .  A
C3529     Br3537   1.930       .  S
C3530     Br3541   1.933       .  S
C3531      C3532   1.407       .  A
C3531      C3536   1.408       .  A
C3532      C3533   1.403       .  A
C3532     Br3543   1.928       .  S
C3533      C3534   1.408       .  A
C3533     Br3539   1.929       .  S
C3534      C3535   1.408       .  A
C3535      C3536   1.399       .  A
C3535     Br3544   1.932       .  S
C3536     Br3540   1.933       .  S
C3545      C3546   1.415       .  A
C3545      C3550   1.410       .  A
C3546      C3547   1.406       .  A
C3546     Br3558   1.932   1_556  S
C3547      C3548   1.406       .  A
C3547     Br3562   1.931       .  S
C3548      C3551   1.480       .  S
C3548      C3549   1.408       .  A
C3549      C3550   1.406       .  A
C3549     Br3557   1.930       .  S
C3550     Br3561   1.930       .  S
C3551      C3552   1.405       .  A
C3551      C3556   1.407       .  A
C3552      C3553   1.405       .  A
C3552     Br3563   1.930       .  S
C3553      C3554   1.416       .  A
C3553     Br3559   1.933       .  S
C3554      C3555   1.418       .  A
C3555      C3556   1.407       .  A
C3555     Br3564   1.934       .  S
C3556     Br3560   1.932       .  S
C3565      C3566   1.416       .  A
C3565      C3570   1.414       .  A
C3566      C3567   1.408       .  A
C3566     Br3578   1.932       .  S
C3567      C3568   1.406       .  A
C3567     Br3582   1.931       .  S
C3568      C3571   1.483       .  S
C3568      C3569   1.408       .  A
C3569      C3570   1.406       .  A
C3569     Br3577   1.932       .  S
C3570     Br3581   1.933       .  S
C3571      C3572   1.409       .  A
C3571      C3576   1.408       .  A
C3572      C3573   1.407       .  A
C3572     Br3583   1.930       .  S
C3573      C3574   1.411       .  A
C3573     Br3579   1.930       .  S
C3574      C3575   1.413       .  A
C3575      C3576   1.406       .  A
C3575     Br3584   1.932   1_565  S
C3576     Br3580   1.931       .  S
C3585      C3586   1.411       .  A
C3585      C3590   1.409       .  A
C3586      C3587   1.405       .  A
C3586     Br3598   1.931       .  S
C3587      C3588   1.408       .  A
C3587     Br3602   1.929       .  S
C3588      C3591   1.482       .  S
C3588      C3589   1.410       .  A
C3589      C3590   1.407       .  A
C3589     Br3597   1.930       .  S
C3590     Br3601   1.929       .  S
C3591      C3592   1.403       .  A
C3591      C3596   1.407       .  A
C3592      C3593   1.408       .  A
C3592     Br3603   1.931       .  S
C3593      C3594   1.423       .  A
C3593     Br3599   1.935       .  S
C3594      C3595   1.421       .  A
C3595      C3596   1.408       .  A
C3595     Br3604   1.934       .  S
C3596     Br3600   1.935       .  S
C3605      C3606   1.413       .  A
C3605      C3610   1.419       .  A
C3606      C3607   1.408       .  A
C3606     Br3618   1.930       .  S
C3607      C3608   1.408       .  A
C3607     Br3622   1.928       .  S
C3608      C3611   1.482       .  S
C3608      C3609   1.406       .  A
C3609      C3610   1.406       .  A
C3609     Br3617   1.933       .  S
C3610     Br3621   1.935       .  S
C3611      C3612   1.409       .  A
C3611      C3616   1.408       .  A
C3612      C3613   1.409       .  A
C3612     Br3623   1.928   1_545  S
C3613      C3614   1.409       .  A
C3613     Br3619   1.925   1_545  S
C3614      C3615   1.409       .  A
C3615      C3616   1.404       .  A
C3615     Br3624   1.927       .  S
C3616     Br3620   1.932       .  S
C3625      C3626   1.410       .  A
C3625      C3630   1.409       .  A
C3626      C3627   1.402       .  A
C3626     Br3638   1.932       .  S
C3627      C3628   1.407       .  A
C3627     Br3642   1.931       .  S
C3628      C3631   1.477       .  S
C3628      C3629   1.410       .  A
C3629      C3630   1.407       .  A
C3629     Br3637   1.928       .  S
C3630     Br3641   1.930       .  S
C3631      C3632   1.407       .  A
C3631      C3636   1.408       .  A
C3632      C3633   1.403       .  A
C3632     Br3643   1.932       .  S
C3633      C3634   1.413       .  A
C3633     Br3639   1.933       .  S
C3634      C3635   1.409       .  A
C3635      C3636   1.407       .  A
C3635     Br3644   1.929       .  S
C3636     Br3640   1.928       .  S
C3645      C3646   1.414       .  A
C3645      C3650   1.417       .  A
C3646      C3647   1.407       .  A
C3646     Br3658   1.931   1_545  S
C3647      C3648   1.407       .  A
C3647     Br3662   1.931       .  S
C3648      C3651   1.482       .  S
C3648      C3649   1.407       .  A
C3649      C3650   1.406       .  A
C3649     Br3657   1.932       .  S
C3650     Br3661   1.933       .  S
C3651      C3652   1.404       .  A
C3651      C3656   1.407       .  A
C3652      C3653   1.406       .  A
C3652     Br3663   1.933       .  S
C3653      C3654   1.421       .  A
C3653     Br3659   1.933       .  S
C3654      C3655   1.419       .  A
C3655      C3656   1.407       .  A
C3655     Br3664   1.934       .  S
C3656     Br3660   1.933       .  S
C3665      C3666   1.419       .  A
C3665      C3670   1.427       .  A
C3666      C3667   1.410       .  A
C3666     Br3678   1.930       .  S
C3667      C3668   1.405       .  A
C3667     Br3682   1.930       .  S
C3668      C3671   1.477       .  S
C3668      C3669   1.402       .  A
C3669      C3670   1.402       .  A
C3669     Br3677   1.939       .  S
C3670     Br3681   1.939       .  S
C3671      C3672   1.407       .  A
C3671      C3676   1.405       .  A
C3672      C3673   1.407       .  A
C3672     Br3683   1.931       .  S
C3673      C3674   1.416       .  A
C3673     Br3679   1.932       .  S
C3674      C3675   1.418       .  A
C3675      C3676   1.403       .  A
C3675     Br3684   1.935       .  S
C3676     Br3680   1.933       .  S
C3685      C3686   1.409       .  A
C3685      C3690   1.412       .  A
C3686      C3687   1.407       .  A
C3686     Br3698   1.929       .  S
C3687      C3688   1.408       .  A
C3687     Br3702   1.929       .  S
C3688      C3691   1.472       .  S
C3688      C3689   1.405       .  A
C3689      C3690   1.399       .  A
C3689     Br3697   1.933       .  S
C3690     Br3701   1.932       .  S
C3691      C3692   1.407       .  A
C3691      C3696   1.408       .  A
C3692      C3693   1.403       .  A
C3692     Br3703   1.929       .  S
C3693      C3694   1.409       .  A
C3693     Br3699   1.930       .  S
C3694      C3695   1.409       .  A
C3695      C3696   1.402       .  A
C3695     Br3704   1.932       .  S
C3696     Br3700   1.931       .  S
C3705      C3706   1.416   1_545  A
C3705      C3710   1.415       .  A
C3706      C3707   1.405       .  A
C3706     Br3718   1.934       .  S
C3707      C3708   1.409   1_565  A
C3707     Br3722   1.934       .  S
C3708      C3711   1.486       .  S
C3708      C3709   1.409       .  A
C3709      C3710   1.410       .  A
C3709     Br3717   1.929       .  S
C3710     Br3721   1.931       .  S
C3711      C3712   1.409   1_545  A
C3711      C3716   1.407       .  A
C3712      C3713   1.408       .  A
C3712     Br3723   1.932       .  S
C3713      C3714   1.414   1_565  A
C3713     Br3719   1.930       .  S
C3714      C3715   1.416       .  A
C3715      C3716   1.407       .  A
C3715     Br3724   1.932       .  S
C3716     Br3720   1.929       .  S
C3725      C3726   1.413       .  A
C3725      C3730   1.411       .  A
C3726      C3727   1.404       .  A
C3726     Br3738   1.933       .  S
C3727      C3728   1.406       .  A
C3727     Br3742   1.931       .  S
C3728      C3731   1.481       .  S
C3728      C3729   1.409       .  A
C3729      C3730   1.409       .  A
C3729     Br3737   1.929       .  S
C3730     Br3741   1.929       .  S
C3731      C3732   1.409       .  A
C3731      C3736   1.409       .  A
C3732      C3733   1.405       .  A
C3732     Br3743   1.929       .  S
C3733      C3734   1.407       .  A
C3733     Br3739   1.931       .  S
C3734      C3735   1.410       .  A
C3735      C3736   1.407       .  A
C3735     Br3744   1.931       .  S
C3736     Br3740   1.929       .  S
C3745      C3746   1.407       .  A
C3745      C3750   1.409       .  A
C3746      C3747   1.405       .  A
C3746     Br3758   1.929       .  S
C3747      C3748   1.409       .  A
C3747     Br3762   1.929       .  S
C3748      C3751   1.476       .  S
C3748      C3749   1.408       .  A
C3749      C3750   1.403       .  A
C3749     Br3757   1.931       .  S
C3750     Br3761   1.931       .  S
C3751      C3752   1.407       .  A
C3751      C3756   1.405       .  A
C3752      C3753   1.405       .  A
C3752     Br3763   1.931       .  S
C3753      C3754   1.410       .  A
C3753     Br3759   1.923       .  S
C3754      C3755   1.415       .  A
C3755      C3756   1.404       .  A
C3755     Br3764   1.932       .  S
C3756     Br3760   1.931       .  S
C3765      C3766   1.416       .  A
C3765      C3770   1.416       .  A
C3766      C3767   1.403       .  A
C3766     Br3778   1.933       .  S
C3767      C3768   1.404       .  A
C3767     Br3782   1.932       .  S
C3768      C3771   1.471       .  S
C3768      C3769   1.405       .  A
C3769      C3770   1.403       .  A
C3769     Br3777   1.932       .  S
C3770     Br3781   1.935       .  S
C3771      C3772   1.406       .  A
C3771      C3776   1.407       .  A
C3772      C3773   1.402       .  A
C3772     Br3783   1.930       .  S
C3773      C3774   1.409       .  A
C3773     Br3779   1.932       .  S
C3774      C3775   1.410       .  A
C3775      C3776   1.403       .  A
C3775     Br3784   1.932       .  S
C3776     Br3780   1.930       .  S
C3785      C3786   1.410       .  A
C3785      C3790   1.411       .  A
C3786      C3787   1.407       .  A
C3786     Br3798   1.930       .  S
C3787      C3788   1.409       .  A
C3787     Br3802   1.928       .  S
C3788      C3791   1.479       .  S
C3788      C3789   1.407       .  A
C3789      C3790   1.403       .  A
C3789     Br3797   1.931       .  S
C3790     Br3801   1.932       .  S
C3791      C3792   1.408       .  A
C3791      C3796   1.409       .  A
C3792      C3793   1.402       .  A
C3792     Br3803   1.932       .  S
C3793      C3794   1.410       .  A
C3793     Br3799   1.932       .  S
C3794      C3795   1.410       .  A
C3795      C3796   1.408       .  A
C3795     Br3804   1.929       .  S
C3796     Br3800   1.928       .  S
C3805      C3806   1.414   1_565  A
C3805      C3810   1.413       .  A
C3806      C3807   1.403       .  A
C3806     Br3818   1.934       .  S
C3807      C3808   1.408       .  A
C3807     Br3822   1.934       .  S
C3808      C3811   1.476       .  S
C3808      C3809   1.406   1_545  A
C3809      C3810   1.406       .  A
C3809     Br3817   1.929       .  S
C3810     Br3821   1.931       .  S
C3811      C3812   1.404       .  A
C3811      C3816   1.405       .  A
C3812      C3813   1.404       .  A
C3812     Br3823   1.931       .  S
C3813      C3814   1.418       .  A
C3813     Br3819   1.933       .  S
C3814      C3815   1.421       .  A
C3815      C3816   1.406       .  A
C3815     Br3824   1.934       .  S
C3816     Br3820   1.934   1_545  S
C3825      C3826   1.409       .  A
C3825      C3830   1.410       .  A
C3826      C3827   1.407       .  A
C3826     Br3838   1.930       .  S
C3827      C3828   1.410       .  A
C3827     Br3842   1.929       .  S
C3828      C3831   1.483       .  S
C3828      C3829   1.409       .  A
C3829      C3830   1.406       .  A
C3829     Br3837   1.929       .  S
C3830     Br3841   1.930       .  S
C3831      C3832   1.408       .  A
C3831      C3836   1.406       .  A
C3832      C3833   1.407       .  A
C3832     Br3843   1.931       .  S
C3833      C3834   1.414       .  A
C3833     Br3839   1.933       .  S
C3834      C3835   1.416       .  A
C3835      C3836   1.408       .  A
C3835     Br3844   1.932       .  S
C3836     Br3840   1.931       .  S
C3845      C3846   1.427       .  A
C3845      C3850   1.422       .  A
C3846      C3847   1.407       .  A
C3846     Br3858   1.936       .  S
C3847      C3848   1.402       .  A
C3847     Br3862   1.934       .  S
C3848      C3851   1.478       .  S
C3848      C3849   1.405       .  A
C3849      C3850   1.405       .  A
C3849     Br3857   1.935       .  S
C3850     Br3861   1.937       .  S
C3851      C3852   1.409       .  A
C3851      C3856   1.407       .  A
C3852      C3853   1.405       .  A
C3852     Br3863   1.931       .  S
C3853      C3854   1.409       .  A
C3853     Br3859   1.930       .  S
C3854      C3855   1.410       .  A
C3855      C3856   1.404       .  A
C3855     Br3864   1.929       .  S
C3856     Br3860   1.930       .  S
C3865      C3866   1.417       .  A
C3865      C3870   1.414       .  A
C3866      C3867   1.407       .  A
C3866     Br3878   1.933       .  S
C3867      C3868   1.405       .  A
C3867     Br3882   1.930       .  S
C3868      C3871   1.478       .  S
C3868      C3869   1.408       .  A
C3869      C3870   1.404       .  A
C3869     Br3877   1.932       .  S
C3870     Br3881   1.934       .  S
C3871      C3872   1.407       .  A
C3871      C3876   1.409       .  A
C3872      C3873   1.404       .  A
C3872     Br3883   1.930       .  S
C3873      C3874   1.411       .  A
C3873     Br3879   1.931       .  S
C3874      C3875   1.409       .  A
C3875      C3876   1.406       .  A
C3875     Br3884   1.929       .  S
C3876     Br3880   1.929       .  S
C3885      C3886   1.412       .  A
C3885      C3890   1.407       .  A
C3886      C3887   1.408       .  A
C3886     Br3898   1.931   1_565  S
C3887      C3888   1.410       .  A
C3887     Br3902   1.930       .  S
C3888      C3891   1.488       .  S
C3888      C3889   1.412       .  A
C3889      C3890   1.409       .  A
C3889     Br3897   1.929       .  S
C3890     Br3901   1.929       .  S
C3891      C3892   1.410       .  A
C3891      C3896   1.412       .  A
C3892      C3893   1.408       .  A
C3892     Br3903   1.930       .  S
C3893      C3894   1.411       .  A
C3893     Br3899   1.932       .  S
C3894      C3895   1.409       .  A
C3895      C3896   1.409       .  A
C3895     Br3904   1.929       .  S
C3896     Br3900   1.929       .  S
C3905      C3906   1.408       .  A
C3905      C3910   1.409       .  A
C3906      C3907   1.406       .  A
C3906     Br3918   1.930       .  S
C3907      C3908   1.409       .  A
C3907     Br3922   1.928       .  S
C3908      C3911   1.478       .  S
C3908      C3909   1.408       .  A
C3909      C3910   1.403       .  A
C3909     Br3917   1.930       .  S
C3910     Br3921   1.931       .  S
C3911      C3912   1.409       .  A
C3911      C3916   1.407       .  A
C3912      C3913   1.405       .  A
C3912     Br3923   1.931       .  S
C3913      C3914   1.410       .  A
C3913     Br3919   1.932       .  S
C3914      C3915   1.410       .  A
C3915      C3916   1.406       .  A
C3915     Br3924   1.930       .  S
C3916     Br3920   1.928       .  S
C3925      C3926   1.428       .  A
C3925      C3930   1.430       .  A
C3926      C3927   1.410       .  A
C3926     Br3938   1.936       .  S
C3927      C3928   1.404       .  A
C3927     Br3942   1.935       .  S
C3928      C3931   1.481       .  S
C3928      C3929   1.400       .  A
C3929      C3930   1.407       .  A
C3929     Br3937   1.935       .  S
C3930     Br3941   1.936       .  S
C3931      C3932   1.407       .  A
C3931      C3936   1.407       .  A
C3932      C3933   1.407       .  A
C3932     Br3943   1.929       .  S
C3933      C3934   1.415       .  A
C3933     Br3939   1.933       .  S
C3934      C3935   1.411       .  A
C3935      C3936   1.406       .  A
C3935     Br3944   1.919       .  S
C3936     Br3940   1.932       .  S
C3945      C3946   1.411       .  A
C3945      C3950   1.413       .  A
C3946      C3947   1.405       .  A
C3946     Br3958   1.932       .  S
C3947      C3948   1.409       .  A
C3947     Br3962   1.931       .  S
C3948      C3951   1.484       .  S
C3948      C3949   1.409       .  A
C3949      C3950   1.409       .  A
C3949     Br3957   1.930       .  S
C3950     Br3961   1.931       .  S
C3951      C3952   1.406       .  A
C3951      C3956   1.408       .  A
C3952      C3953   1.406       .  A
C3952     Br3963   1.932       .  S
C3953      C3954   1.417       .  A
C3953     Br3959   1.934       .  S
C3954      C3955   1.418       .  A
C3955      C3956   1.409       .  A
C3955     Br3964   1.934       .  S
C3956     Br3960   1.931       .  S
C3965      C3966   1.411       .  A
C3965      C3970   1.410       .  A
C3966      C3967   1.402       .  A
C3966     Br3978   1.932       .  S
C3967      C3968   1.407       .  A
C3967     Br3982   1.932       .  S
C3968      C3971   1.474       .  S
C3968      C3969   1.407       .  A
C3969      C3970   1.406       .  A
C3969     Br3977   1.929       .  S
C3970     Br3981   1.930       .  S
C3971      C3972   1.408       .  A
C3971      C3976   1.408       .  A
C3972      C3973   1.403       .  A
C3972     Br3983   1.930       .  S
C3973      C3974   1.408       .  A
C3973     Br3979   1.931       .  S
C3974      C3975   1.410       .  A
C3975      C3976   1.403       .  A
C3975     Br3984   1.932       .  S
C3976     Br3980   1.930       .  S
C3985      C3986   1.412       .  A
C3985      C3990   1.411       .  A
C3986      C3987   1.404       .  A
C3986     Br3998   1.932       .  S
C3987      C3988   1.406       .  A
C3987     Br4002   1.930       .  S
C3988      C3991   1.473       .  S
C3988      C3989   1.407       .  A
C3989      C3990   1.402       .  A
C3989     Br3997   1.932       .  S
C3990     Br4001   1.932       .  S
C3991      C3992   1.404       .  A
C3991      C3996   1.404       .  A
C3992      C3993   1.402       .  A
C3992     Br4003   1.933       .  S
C3993      C3994   1.419       .  A
C3993     Br3999   1.936       .  S
C3994      C3995   1.419       .  A
C3995      C3996   1.405       .  A
C3995     Br4004   1.933       .  S
C3996     Br4000   1.932       .  S
C4005      C4006   1.417       .  A
C4005      C4010   1.418       .  A
C4006      C4007   1.404       .  A
C4006     Br4018   1.934       .  S
C4007      C4008   1.406       .  A
C4007     Br4022   1.933       .  S
C4008      C4011   1.473       .  S
C4008      C4009   1.402       .  A
C4009      C4010   1.405       .  A
C4009     Br4017   1.933       .  S
C4010     Br4021   1.923       .  S
C4011      C4012   1.407       .  A
C4011      C4016   1.407       .  A
C4012      C4013   1.401       .  A
C4012     Br4023   1.930       .  S
C4013      C4014   1.409       .  A
C4013     Br4019   1.932       .  S
C4014      C4015   1.411       .  A
C4015      C4016   1.404       .  A
C4015     Br4024   1.932       .  S
C4016     Br4020   1.929       .  S
C4025      C4026   1.411       .  A
C4025      C4030   1.411       .  A
C4026      C4027   1.405       .  A
C4026     Br4038   1.931       .  S
C4027      C4028   1.407       .  A
C4027     Br4042   1.929       .  S
C4028      C4031   1.475       .  S
C4028      C4029   1.407       .  A
C4029      C4030   1.403       .  A
C4029     Br4037   1.932       .  S
C4030     Br4041   1.933       .  S
C4031      C4032   1.407       .  A
C4031      C4036   1.408       .  A
C4032      C4033   1.403       .  A
C4032     Br4043   1.929       .  S
C4033      C4034   1.409       .  A
C4033     Br4039   1.931       .  S
C4034      C4035   1.409       .  A
C4035      C4036   1.404       .  A
C4035     Br4044   1.931       .  S
C4036     Br4040   1.930       .  S
C4045      C4046   1.416       .  A
C4045      C4050   1.416       .  A
C4046      C4047   1.405       .  A
C4046     Br4058   1.934       .  S
C4047      C4048   1.406       .  A
C4047     Br4062   1.932       .  S
C4048      C4051   1.477       .  S
C4048      C4049   1.406       .  A
C4049      C4050   1.406       .  A
C4049     Br4057   1.931       .  S
C4050     Br4061   1.933       .  S
C4051      C4052   1.408       .  A
C4051      C4056   1.409       .  A
C4052      C4053   1.403       .  A
C4052     Br4063   1.931       .  S
C4053      C4054   1.410       .  A
C4053     Br4059   1.931       .  S
C4054      C4055   1.410       .  A
C4055      C4056   1.406       .  A
C4055     Br4064   1.931       .  S
C4056     Br4060   1.930       .  S
C4065      C4066   1.410       .  A
C4065      C4070   1.410       .  A
C4066      C4067   1.405       .  A
C4066     Br4078   1.931       .  S
C4067      C4068   1.407       .  A
C4067     Br4082   1.929       .  S
C4068      C4071   1.475       .  S
C4068      C4069   1.407       .  A
C4069      C4070   1.403       .  A
C4069     Br4077   1.931       .  S
C4070     Br4081   1.932       .  S
C4071      C4072   1.408       .  A
C4071      C4076   1.408       .  A
C4072      C4073   1.401       .  A
C4072     Br4083   1.932       .  S
C4073      C4074   1.408       .  A
C4073     Br4079   1.931       .  S
C4074      C4075   1.409       .  A
C4075      C4076   1.407       .  A
C4075     Br4084   1.930       .  S
C4076     Br4080   1.928       .  S
C4085      C4086   1.412       .  A
C4085      C4090   1.411       .  A
C4086      C4087   1.407       .  A
C4086     Br4098   1.931       .  S
C4087      C4088   1.408       .  A
C4087     Br4102   1.930       .  S
C4088      C4091   1.481       .  S
C4088      C4089   1.408       .  A
C4089      C4090   1.406       .  A
C4089     Br4097   1.930       .  S
C4090     Br4101   1.931       .  S
C4091      C4092   1.406       .  A
C4091      C4096   1.409       .  A
C4092      C4093   1.407       .  A
C4092     Br4103   1.930       .  S
C4093      C4094   1.415       .  A
C4093     Br4099   1.933       .  S
C4094      C4095   1.412       .  A
C4095      C4096   1.406       .  A
C4095     Br4104   1.932       .  S
C4096     Br4100   1.931       .  S
C4105      C4106   1.408       .  A
C4105      C4110   1.409       .  A
C4106      C4107   1.402       .  A
C4106     Br4118   1.931       .  S
C4107      C4108   1.409       .  A
C4107     Br4122   1.932       .  S
C4108      C4111   1.482       .  S
C4108      C4109   1.410       .  A
C4109      C4110   1.410       .  A
C4109     Br4117   1.928       .  S
C4110     Br4121   1.928       .  S
C4111      C4112   1.408       .  A
C4111      C4116   1.409       .  A
C4112      C4113   1.405       .  A
C4112     Br4123   1.932       .  S
C4113      C4114   1.413       .  A
C4113     Br4119   1.933       .  S
C4114      C4115   1.412       .  A
C4115      C4116   1.408       .  A
C4115     Br4124   1.931       .  S
C4116     Br4120   1.929       .  S
C4125      C4126   1.413       .  A
C4125      C4130   1.411       .  A
C4126      C4127   1.405       .  A
C4126     Br4138   1.933       .  S
C4127      C4128   1.408       .  A
C4127     Br4142   1.931       .  S
C4128      C4131   1.481       .  S
C4128      C4129   1.408       .  A
C4129      C4130   1.407       .  A
C4129     Br4137   1.929       .  S
C4130     Br4141   1.930       .  S
C4131      C4132   1.406       .  A
C4131      C4136   1.404       .  A
C4132      C4133   1.407       .  A
C4132     Br4143   1.934       .  S
C4133      C4134   1.421       .  A
C4133     Br4139   1.935       .  S
C4134      C4135   1.420       .  A
C4135      C4136   1.407       .  A
C4135     Br4144   1.933       .  S
C4136     Br4140   1.931       .  S
C4145      C4146   1.414       .  A
C4145      C4150   1.415       .  A
C4146      C4147   1.409       .  A
C4146     Br4158   1.931       .  S
C4147      C4148   1.409       .  A
C4147     Br4162   1.930       .  S
C4148      C4151   1.486       .  S
C4148      C4149   1.407       .  A
C4149      C4150   1.407       .  A
C4149     Br4157   1.930       .  S
C4150     Br4161   1.933       .  S
C4151      C4152   1.409       .  A
C4151      C4156   1.410       .  A
C4152      C4153   1.410       .  A
C4152     Br4163   1.930       .  S
C4153      C4154   1.415       .  A
C4153     Br4159   1.931       .  S
C4154      C4155   1.410       .  A
C4155      C4156   1.406       .  A
C4155     Br4164   1.931       .  S
C4156     Br4160   1.931       .  S
C4165      C4166   1.410       .  A
C4165      C4170   1.412       .  A
C4166      C4167   1.402       .  A
C4166     Br4178   1.932       .  S
C4167      C4168   1.408       .  A
C4167     Br4182   1.931       .  S
C4168      C4171   1.475       .  S
C4168      C4169   1.407       .  A
C4169      C4170   1.406       .  A
C4169     Br4177   1.929       .  S
C4170     Br4181   1.931       .  S
C4171      C4172   1.409       .  A
C4171      C4176   1.407       .  A
C4172      C4173   1.405       .  A
C4172     Br4183   1.929       .  S
C4173      C4174   1.407       .  A
C4173     Br4179   1.929       .  S
C4174      C4175   1.408       .  A
C4175      C4176   1.403       .  A
C4175     Br4184   1.929       .  S
C4176     Br4180   1.930       .  S
C4185      C4186   1.420       .  A
C4185      C4190   1.417       .  A
C4186      C4187   1.408       .  A
C4186     Br4198   1.934       .  S
C4187      C4188   1.406       .  A
C4187     Br4202   1.932       .  S
C4188      C4191   1.485       .  S
C4188      C4189   1.407       .  A
C4189      C4190   1.408       .  A
C4189     Br4197   1.931       .  S
C4190     Br4201   1.933       .  S
C4191      C4192   1.409       .  A
C4191      C4196   1.410       .  A
C4192      C4193   1.405       .  A
C4192     Br4203   1.931       .  S
C4193      C4194   1.409       .  A
C4193     Br4199   1.931       .  S
C4194      C4195   1.410       .  A
C4195      C4196   1.410       .  A
C4195     Br4204   1.929       .  S
C4196     Br4200   1.929       .  S
C4205      C4206   1.407       .  A
C4205      C4210   1.410       .  A
C4206      C4207   1.409       .  A
C4206     Br4218   1.929       .  S
C4207      C4208   1.411       .  A
C4207     Br4222   1.927       .  S
C4208      C4211   1.483       .  S
C4208      C4209   1.408       .  A
C4209      C4210   1.404       .  A
C4209     Br4217   1.932       .  S
C4210     Br4221   1.929       .  S
C4211      C4212   1.409       .  A
C4211      C4216   1.407       .  A
C4212      C4213   1.408       .  A
C4212     Br4223   1.930       .  S
C4213      C4214   1.413       .  A
C4213     Br4219   1.931       .  S
C4214      C4215   1.413       .  A
C4215      C4216   1.406       .  A
C4215     Br4224   1.932       .  S
C4216     Br4220   1.930       .  S
C4225      C4226   1.423       .  A
C4225      C4230   1.422       .  A
C4226      C4227   1.413       .  A
C4226     Br4238   1.934       .  S
C4227      C4228   1.408       .  A
C4227     Br4242   1.933       .  S
C4228      C4231   1.495       .  S
C4228      C4229   1.407       .  A
C4229      C4230   1.412       .  A
C4229     Br4237   1.932       .  S
C4230     Br4241   1.932   1_554  S
C4231      C4232   1.411       .  A
C4231      C4236   1.412       .  A
C4232      C4233   1.409       .  A
C4232     Br4243   1.928   1_554  S
C4233      C4234   1.411       .  A
C4233     Br4239   1.931   1_554  S
C4234      C4235   1.415       .  A
C4235      C4236   1.412       .  A
C4235     Br4244   1.932       .  S
C4236     Br4240   1.931       .  S
C4245      C4246   1.412       .  A
C4245      C4250   1.410       .  A
C4246      C4247   1.407       .  A
C4246     Br4258   1.929       .  S
C4247      C4248   1.408       .  A
C4247     Br4262   1.930       .  S
C4248      C4251   1.489       .  S
C4248      C4249   1.411       .  A
C4249      C4250   1.411       .  A
C4249     Br4257   1.928       .  S
C4250     Br4261   1.929       .  S
C4251      C4252   1.411       .  A
C4251      C4256   1.408       .  A
C4252      C4253   1.413       .  A
C4252     Br4263   1.929       .  S
C4253      C4254   1.413       .  A
C4253     Br4259   1.930       .  S
C4254      C4255   1.413       .  A
C4255      C4256   1.406       .  A
C4255     Br4264   1.931       .  S
C4256     Br4260   1.931       .  S
C4265      C4266   1.414       .  A
C4265      C4270   1.411       .  A
C4266      C4267   1.405       .  A
C4266     Br4278   1.932       .  S
C4267      C4268   1.407       .  A
C4267     Br4282   1.931       .  S
C4268      C4271   1.485       .  S
C4268      C4269   1.410       .  A
C4269      C4270   1.410       .  A
C4269     Br4277   1.928       .  S
C4270     Br4281   1.929       .  S
C4271      C4272   1.409       .  A
C4271      C4276   1.410       .  A
C4272      C4273   1.409       .  A
C4272     Br4283   1.928       .  S
C4273      C4274   1.412       .  A
C4273     Br4279   1.931       .  S
C4274      C4275   1.410       .  A
C4275      C4276   1.406       .  A
C4275     Br4284   1.931       .  S
C4276     Br4280   1.931       .  S
C4285      C4286   1.414       .  A
C4285      C4290   1.413       .  A
C4286      C4287   1.406       .  A
C4286     Br4298   1.932       .  S
C4287      C4288   1.407       .  A
C4287     Br4302   1.930       .  S
C4288      C4291   1.485       .  S
C4288      C4289   1.410       .  A
C4289      C4290   1.409       .  A
C4289     Br4297   1.930       .  S
C4290     Br4301   1.931       .  S
C4291      C4292   1.407       .  A
C4291      C4296   1.407       .  A
C4292      C4293   1.406       .  A
C4292     Br4303   1.935       .  S
C4293      C4294   1.419       .  A
C4293     Br4299   1.935       .  S
C4294      C4295   1.419       .  A
C4295      C4296   1.410       .  A
C4295     Br4304   1.932       .  S
C4296     Br4300   1.930       .  S
C4305      C4306   1.412       .  A
C4305      C4310   1.411       .  A
C4306      C4307   1.409       .  A
C4306     Br4318   1.930       .  S
C4307      C4308   1.410       .  A
C4307     Br4322   1.930       .  S
C4308      C4311   1.488       .  S
C4308      C4309   1.409       .  A
C4309      C4310   1.408       .  A
C4309     Br4317   1.929       .  S
C4310     Br4321   1.930       .  S
C4311      C4312   1.407       .  A
C4311      C4316   1.407       .  A
C4312      C4313   1.410       .  A
C4312     Br4323   1.931       .  S
C4313      C4314   1.419       .  A
C4313     Br4319   1.932       .  S
C4314      C4315   1.417       .  A
C4315      C4316   1.408       .  A
C4315     Br4324   1.935       .  S
C4316     Br4320   1.931       .  S
C4325      C4326   1.408       .  A
C4325      C4330   1.411       .  A
C4326      C4327   1.405       .  A
C4326     Br4338   1.930       .  S
C4327      C4328   1.408       .  A
C4327     Br4342   1.928       .  S
C4328      C4331   1.477       .  S
C4328      C4329   1.408       .  A
C4329      C4330   1.404       .  A
C4329     Br4337   1.931       .  S
C4330     Br4341   1.932       .  S
C4331      C4332   1.407       .  A
C4331      C4336   1.407       .  A
C4332      C4333   1.405       .  A
C4332     Br4343   1.929       .  S
C4333      C4334   1.410       .  A
C4333     Br4339   1.931       .  S
C4334      C4335   1.412       .  A
C4335      C4336   1.404       .  A
C4335     Br4344   1.932       .  S
C4336     Br4340   1.931       .  S
C4345      C4346   1.422       .  A
C4345      C4350   1.423   1_554  A
C4346      C4347   1.409       .  A
C4346     Br4358   1.934       .  S
C4347      C4348   1.406       .  A
C4347     Br4362   1.932       .  S
C4348      C4351   1.489       .  S
C4348      C4349   1.407   1_554  A
C4349      C4350   1.411       .  A
C4349     Br4357   1.932       .  S
C4350     Br4361   1.934       .  S
C4351      C4352   1.409       .  A
C4351      C4356   1.409   1_554  A
C4352      C4353   1.410       .  A
C4352     Br4363   1.929       .  S
C4353      C4354   1.412       .  A
C4353     Br4359   1.929       .  S
C4354      C4355   1.413   1_554  A
C4355      C4356   1.408       .  A
C4355     Br4364   1.932       .  S
C4356     Br4360   1.931       .  S
C4365      C4366   1.409       .  A
C4365      C4370   1.408       .  A
C4366      C4367   1.405       .  A
C4366     Br4378   1.930       .  S
C4367      C4368   1.409       .  A
C4367     Br4382   1.930       .  S
C4368      C4371   1.480       .  S
C4368      C4369   1.409       .  A
C4369      C4370   1.406       .  A
C4369     Br4377   1.928       .  S
C4370     Br4381   1.930       .  S
C4371      C4372   1.409       .  A
C4371      C4376   1.406       .  A
C4372      C4373   1.406       .  A
C4372     Br4383   1.931       .  S
C4373      C4374   1.411       .  A
C4373     Br4379   1.931       .  S
C4374      C4375   1.415       .  A
C4375      C4376   1.407       .  A
C4375     Br4384   1.933       .  S
C4376     Br4380   1.930       .  S
C4385      C4386   1.408       .  A
C4385      C4390   1.412       .  A
C4386      C4387   1.408       .  A
C4386     Br4398   1.924       .  S
C4387      C4388   1.409       .  A
C4387     Br4402   1.929       .  S
C4388      C4391   1.483       .  S
C4388      C4389   1.408       .  A
C4389      C4390   1.406       .  A
C4389     Br4397   1.930       .  S
C4390     Br4401   1.930       .  S
C4391      C4392   1.407       .  A
C4391      C4396   1.409       .  A
C4392      C4393   1.406       .  A
C4392     Br4403   1.931       .  S
C4393      C4394   1.413       .  A
C4393     Br4399   1.932       .  S
C4394      C4395   1.410       .  A
C4395      C4396   1.409       .  A
C4395     Br4404   1.929       .  S
C4396     Br4400   1.928       .  S
C4405      C4406   1.411       .  A
C4405      C4410   1.408       .  A
C4406      C4407   1.408       .  A
C4406     Br4418   1.930       .  S
C4407      C4408   1.409       .  A
C4407     Br4422   1.929       .  S
C4408      C4411   1.482       .  S
C4408      C4409   1.408       .  A
C4409      C4410   1.405       .  A
C4409     Br4417   1.929       .  S
C4410     Br4421   1.925       .  S
C4411      C4412   1.405       .  A
C4411      C4416   1.409       .  A
C4412      C4413   1.407       .  A
C4412     Br4423   1.931       .  S
C4413      C4414   1.417       .  A
C4413     Br4419   1.933       .  S
C4414      C4415   1.413       .  A
C4415      C4416   1.408       .  A
C4415     Br4424   1.931       .  S
C4416     Br4420   1.931       .  S
C4425      C4426   1.410       .  A
C4425      C4430   1.411       .  A
C4426      C4427   1.402       .  A
C4426     Br4438   1.933       .  S
C4427      C4428   1.408       .  A
C4427     Br4442   1.932       .  S
C4428      C4431   1.476       .  S
C4428      C4429   1.408       .  A
C4429      C4430   1.406       .  A
C4429     Br4437   1.930       .  S
C4430     Br4441   1.932       .  S
C4431      C4432   1.407       .  A
C4431      C4436   1.408       .  A
C4432      C4433   1.403       .  A
C4432     Br4443   1.932       .  S
C4433      C4434   1.413       .  A
C4433     Br4439   1.933       .  S
C4434      C4435   1.412       .  A
C4435      C4436   1.405       .  A
C4435     Br4444   1.932       .  S
C4436     Br4440   1.930       .  S
C4445      C4446   1.432       .  A
C4445      C4450   1.428       .  A
C4446      C4447   1.411       .  A
C4446     Br4458   1.938       .  S
C4447      C4448   1.402       .  A
C4447     Br4462   1.934       .  S
C4448      C4451   1.486       .  S
C4448      C4449   1.403       .  A
C4449      C4450   1.409       .  A
C4449     Br4457   1.933       .  S
C4450     Br4461   1.937       .  S
C4451      C4452   1.408       .  A
C4451      C4456   1.408       .  A
C4452      C4453   1.409       .  A
C4452     Br4463   1.929       .  S
C4453      C4454   1.414       .  A
C4453     Br4459   1.930       .  S
C4454      C4455   1.415       .  A
C4455      C4456   1.408       .  A
C4455     Br4464   1.932       .  S
C4456     Br4460   1.932       .  S
C4465      C4466   1.411       .  A
C4465      C4470   1.409       .  A
C4466      C4467   1.402       .  A
C4466     Br4478   1.932       .  S
C4467      C4468   1.408       .  A
C4467     Br4482   1.932       .  S
C4468      C4471   1.475       .  S
C4468      C4469   1.408       .  A
C4469      C4470   1.404       .  A
C4469     Br4477   1.930       .  S
C4470     Br4481   1.930       .  S
C4471      C4472   1.408       .  A
C4471      C4476   1.404       .  A
C4472      C4473   1.405       .  A
C4472     Br4483   1.932       .  S
C4473      C4474   1.414       .  A
C4473     Br4479   1.934       .  S
C4474      C4475   1.417       .  A
C4475      C4476   1.403       .  A
C4475     Br4484   1.935       .  S
C4476     Br4480   1.933       .  S
C4485      C4486   1.415       .  A
C4485      C4490   1.416       .  A
C4486      C4487   1.409       .  A
C4486     Br4498   1.932       .  S
C4487      C4488   1.409       .  A
C4487     Br4502   1.931       .  S
C4488      C4491   1.491       .  S
C4488      C4489   1.409       .  A
C4489      C4490   1.411       .  A
C4489     Br4497   1.929       .  S
C4490     Br4501   1.931       .  S
C4491      C4492   1.410       .  A
C4491      C4496   1.409       .  A
C4492      C4493   1.410       .  A
C4492     Br4503   1.929       .  S
C4493      C4494   1.413       .  A
C4493     Br4499   1.931       .  S
C4494      C4495   1.415       .  A
C4495      C4496   1.410       .  A
C4495     Br4504   1.932       .  S
C4496     Br4500   1.931       .  S
C4505      C4506   1.409       .  A
C4505      C4510   1.409       .  A
C4506      C4507   1.405       .  A
C4506     Br4518   1.931       .  S
C4507      C4508   1.409       .  A
C4507     Br4522   1.931       .  S
C4508      C4511   1.482       .  S
C4508      C4509   1.409       .  A
C4509      C4510   1.407       .  A
C4509     Br4517   1.928       .  S
C4510     Br4521   1.931       .  S
C4511      C4512   1.406       .  A
C4511      C4516   1.409       .  A
C4512      C4513   1.405       .  A
C4512     Br4523   1.932       .  S
C4513      C4514   1.414       .  A
C4513     Br4519   1.932       .  S
C4514      C4515   1.411       .  A
C4515      C4516   1.409       .  A
C4515     Br4524   1.929       .  S
C4516     Br4520   1.929       .  S
C4525      C4526   1.415       .  A
C4525      C4530   1.417       .  A
C4526      C4527   1.405       .  A
C4526     Br4538   1.932       .  S
C4527      C4528   1.406       .  A
C4527     Br4542   1.931       .  S
C4528      C4531   1.479       .  S
C4528      C4529   1.407       .  A
C4529      C4530   1.405       .  A
C4529     Br4537   1.933   1_455  S
C4530     Br4541   1.934   1_455  S
C4531      C4532   1.406   1_455  A
C4531      C4536   1.409       .  A
C4532      C4533   1.405       .  A
C4532     Br4543   1.931       .  S
C4533      C4534   1.414       .  A
C4533     Br4539   1.932       .  S
C4534      C4535   1.414       .  A
C4535      C4536   1.405   1_655  A
C4535     Br4544   1.934   1_655  S
C4536     Br4540   1.932       .  S
C4545      C4546   1.410       .  A
C4545      C4550   1.412       .  A
C4546      C4547   1.404       .  A
C4546     Br4558   1.933       .  S
C4547      C4548   1.409       .  A
C4547     Br4562   1.931       .  S
C4548      C4551   1.477       .  S
C4548      C4549   1.407       .  A
C4549      C4550   1.405       .  A
C4549     Br4557   1.929       .  S
C4550     Br4561   1.932       .  S
C4551      C4552   1.408       .  A
C4551      C4556   1.407       .  A
C4552      C4553   1.407       .  A
C4552     Br4563   1.929       .  S
C4553      C4554   1.410       .  A
C4553     Br4559   1.930       .  S
C4554      C4555   1.410       .  A
C4555      C4556   1.403       .  A
C4555     Br4564   1.931       .  S
C4556     Br4560   1.931       .  S
C4565      C4566   1.415       .  A
C4565      C4570   1.410       .  A
C4566      C4567   1.409       .  A
C4566     Br4578   1.930       .  S
C4567      C4568   1.408       .  A
C4567     Br4582   1.931       .  S
C4568      C4571   1.490       .  S
C4568      C4569   1.411       .  A
C4569      C4570   1.411       .  A
C4569     Br4577   1.929       .  S
C4570     Br4581   1.928       .  S
C4571      C4572   1.410       .  A
C4571      C4576   1.409       .  A
C4572      C4573   1.409       .  A
C4572     Br4583   1.930       .  S
C4573      C4574   1.414       .  A
C4573     Br4579   1.932       .  S
C4574      C4575   1.414       .  A
C4575      C4576   1.409       .  A
C4575     Br4584   1.932       .  S
C4576     Br4580   1.929       .  S
C4585      C4586   1.411       .  A
C4585      C4590   1.412       .  A
C4586      C4587   1.399       .  A
C4586     Br4598   1.934       .  S
C4587      C4588   1.406       .  A
C4587     Br4602   1.933       .  S
C4588      C4591   1.470       .  S
C4588      C4589   1.406       .  A
C4589      C4590   1.405       .  A
C4589     Br4597   1.930       .  S
C4590     Br4601   1.931       .  S
C4591      C4592   1.407       .  A
C4591      C4596   1.406       .  A
C4592      C4593   1.403       .  A
C4592     Br4603   1.929       .  S
C4593      C4594   1.409       .  A
C4593     Br4599   1.931       .  S
C4594      C4595   1.412       .  A
C4595      C4596   1.400       .  A
C4595     Br4604   1.934       .  S
C4596     Br4600   1.932       .  S
C4605      C4606   1.413       .  A
C4605      C4610   1.413       .  A
C4606      C4607   1.405       .  A
C4606     Br4618   1.933       .  S
C4607      C4608   1.408       .  A
C4607     Br4622   1.933       .  S
C4608      C4611   1.480       .  S
C4608      C4609   1.407       .  A
C4609      C4610   1.407       .  A
C4609     Br4617   1.929       .  S
C4610     Br4621   1.930       .  S
C4611      C4612   1.405       .  A
C4611      C4616   1.405       .  A
C4612      C4613   1.409       .  A
C4612     Br4623   1.931       .  S
C4613      C4614   1.421       .  A
C4613     Br4619   1.934       .  S
C4614      C4615   1.422       .  A
C4615      C4616   1.405       .  A
C4615     Br4624   1.936       .  S
C4616     Br4620   1.935       .  S
C4625      C4626   1.413       .  A
C4625      C4630   1.414       .  A
C4626      C4627   1.399       .  A
C4626     Br4638   1.934       .  S
C4627      C4628   1.404       .  A
C4627     Br4642   1.933       .  S
C4628      C4631   1.468       .  S
C4628      C4629   1.407       .  A
C4629      C4630   1.403       .  A
C4629     Br4637   1.932       .  S
C4630     Br4641   1.933       .  S
C4631      C4632   1.405       .  A
C4631      C4636   1.407       .  A
C4632      C4633   1.399       .  A
C4632     Br4643   1.933       .  S
C4633      C4634   1.413       .  A
C4633     Br4639   1.934       .  S
C4634      C4635   1.411       .  A
C4635      C4636   1.402       .  A
C4635     Br4644   1.932       .  S
C4636     Br4640   1.932       .  S
C4645      C4646   1.410       .  A
C4645      C4650   1.410       .  A
C4646      C4647   1.409       .  A
C4646     Br4658   1.930       .  S
C4647      C4648   1.410       .  A
C4647     Br4662   1.928       .  S
C4648      C4651   1.482       .  S
C4648      C4649   1.408       .  A
C4649      C4650   1.404       .  A
C4649     Br4657   1.931       .  S
C4650     Br4661   1.931       .  S
C4651      C4652   1.409       .  A
C4651      C4656   1.410       .  A
C4652      C4653   1.409       .  A
C4652     Br4663   1.928       .  S
C4653      C4654   1.411       .  A
C4653     Br4659   1.930       .  S
C4654      C4655   1.408       .  A
C4655      C4656   1.403       .  A
C4655     Br4664   1.932       .  S
C4656     Br4660   1.932       .  S
C4665      C4666   1.414       .  A
C4665      C4670   1.415       .  A
C4666      C4667   1.409       .  A
C4666     Br4678   1.930       .  S
C4667      C4668   1.408       .  A
C4667     Br4682   1.930       .  S
C4668      C4671   1.484       .  S
C4668      C4669   1.408       .  A
C4669      C4670   1.407       .  A
C4669     Br4677   1.931       .  S
C4670     Br4681   1.933       .  S
C4671      C4672   1.409       .  A
C4671      C4676   1.410       .  A
C4672      C4673   1.406       .  A
C4672     Br4683   1.930       .  S
C4673      C4674   1.410       .  A
C4673     Br4679   1.932       .  S
C4674      C4675   1.411       .  A
C4675      C4676   1.409       .  A
C4675     Br4684   1.931       .  S
C4676     Br4680   1.929       .  S
C4685      C4686   1.412       .  A
C4685      C4690   1.409       .  A
C4686      C4687   1.404       .  A
C4686     Br4698   1.930       .  S
C4687      C4688   1.406       .  A
C4687     Br4702   1.931       .  S
C4688      C4691   1.482       .  S
C4688      C4689   1.410       .  A
C4689      C4690   1.410       .  A
C4689     Br4697   1.928       .  S
C4690     Br4701   1.929       .  S
C4691      C4692   1.409       .  A
C4691      C4696   1.408       .  A
C4692      C4693   1.408       .  A
C4692     Br4703   1.929       .  S
C4693      C4694   1.412       .  A
C4693     Br4699   1.931       .  S
C4694      C4695   1.412       .  A
C4695      C4696   1.405       .  A
C4695     Br4704   1.932       .  S
C4696     Br4700   1.930       .  S
C4705      C4706   1.415       .  A
C4705      C4710   1.414       .  A
C4706      C4707   1.408       .  A
C4706     Br4718   1.931       .  S
C4707      C4708   1.408       .  A
C4707     Br4722   1.931       .  S
C4708      C4711   1.480       .  S
C4708      C4709   1.407       .  A
C4709      C4710   1.402       .  A
C4709     Br4717   1.932   1_455  S
C4710     Br4721   1.935       .  S
C4711      C4712   1.408       .  A
C4711      C4716   1.406   1_455  A
C4712      C4713   1.405       .  A
C4712     Br4723   1.935       .  S
C4713      C4714   1.417   1_455  A
C4713     Br4719   1.934       .  S
C4714      C4715   1.416       .  A
C4715      C4716   1.406       .  A
C4715     Br4724   1.932       .  S
C4716     Br4720   1.931       .  S
C4725      C4726   1.414       .  A
C4725      C4730   1.410       .  A
C4726      C4727   1.406       .  A
C4726     Br4738   1.931       .  S
C4727      C4728   1.407       .  A
C4727     Br4742   1.931       .  S
C4728      C4731   1.482       .  S
C4728      C4729   1.410       .  A
C4729      C4730   1.407       .  A
C4729     Br4737   1.932       .  S
C4730     Br4741   1.930       .  S
C4731      C4732   1.408       .  A
C4731      C4736   1.409       .  A
C4732      C4733   1.405       .  A
C4732     Br4743   1.931       .  S
C4733      C4734   1.413       .  A
C4733     Br4739   1.933       .  S
C4734      C4735   1.413       .  A
C4735      C4736   1.406       .  A
C4735     Br4744   1.933       .  S
C4736     Br4740   1.931       .  S
C4745      C4746   1.412       .  A
C4745      C4750   1.409       .  A
C4746      C4747   1.405       .  A
C4746     Br4758   1.932       .  S
C4747      C4748   1.407       .  A
C4747     Br4762   1.930       .  S
C4748      C4751   1.473       .  S
C4748      C4749   1.407       .  A
C4749      C4750   1.401       .  A
C4749     Br4757   1.932       .  S
C4750     Br4761   1.932       .  S
C4751      C4752   1.407       .  A
C4751      C4756   1.408       .  A
C4752      C4753   1.405       .  A
C4752     Br4763   1.929       .  S
C4753      C4754   1.409       .  A
C4753     Br4759   1.930       .  S
C4754      C4755   1.408       .  A
C4755      C4756   1.401       .  A
C4755     Br4764   1.932       .  S
C4756     Br4760   1.932       .  S
C4765      C4766   1.419       .  A
C4765      C4770   1.424       .  A
C4766      C4767   1.407       .  A
C4766     Br4778   1.933       .  S
C4767      C4768   1.404       .  A
C4767     Br4782   1.931       .  S
C4768      C4771   1.481       .  S
C4768      C4769   1.405       .  A
C4769      C4770   1.407       .  A
C4769     Br4777   1.935       .  S
C4770     Br4781   1.935       .  S
C4771      C4772   1.406       .  A
C4771      C4776   1.408       .  A
C4772      C4773   1.405       .  A
C4772     Br4783   1.930       .  S
C4773      C4774   1.414       .  A
C4773     Br4779   1.932       .  S
C4774      C4775   1.415       .  A
C4775      C4776   1.407       .  A
C4775     Br4784   1.933       .  S
C4776     Br4780   1.932       .  S
C4785      C4786   1.414       .  A
C4785      C4790   1.415       .  A
C4786      C4787   1.404       .  A
C4786     Br4798   1.934       .  S
C4787      C4788   1.407       .  A
C4787     Br4802   1.931       .  S
C4788      C4791   1.475       .  S
C4788      C4789   1.405       .  A
C4789      C4790   1.404       .  A
C4789     Br4797   1.931       .  S
C4790     Br4801   1.933       .  S
C4791      C4792   1.407       .  A
C4791      C4796   1.408       .  A
C4792      C4793   1.405       .  A
C4792     Br4803   1.930       .  S
C4793      C4794   1.413       .  A
C4793     Br4799   1.932       .  S
C4794      C4795   1.408       .  A
C4795      C4796   1.403       .  A
C4795     Br4804   1.930       .  S
C4796     Br4800   1.930       .  S
C4805      C4806   1.412       .  A
C4805      C4810   1.414       .  A
C4806      C4807   1.408       .  A
C4806     Br4818   1.931       .  S
C4807      C4808   1.409       .  A
C4807     Br4822   1.930       .  S
C4808      C4811   1.484       .  S
C4808      C4809   1.409       .  A
C4809      C4810   1.407       .  A
C4809     Br4817   1.931       .  S
C4810     Br4821   1.933       .  S
C4811      C4812   1.409       .  A
C4811      C4816   1.410       .  A
C4812      C4813   1.408       .  A
C4812     Br4823   1.930       .  S
C4813      C4814   1.413       .  A
C4813     Br4819   1.931       .  S
C4814      C4815   1.409       .  A
C4815      C4816   1.407       .  A
C4815     Br4824   1.930       .  S
C4816     Br4820   1.930       .  S
C4825      C4826   1.409       .  A
C4825      C4830   1.412       .  A
C4826      C4827   1.405       .  A
C4826     Br4838   1.930       .  S
C4827      C4828   1.408       .  A
C4827     Br4842   1.930       .  S
C4828      C4831   1.478       .  S
C4828      C4829   1.407       .  A
C4829      C4830   1.406       .  A
C4829     Br4837   1.930       .  S
C4830     Br4841   1.932       .  S
C4831      C4832   1.408       .  A
C4831      C4836   1.408       .  A
C4832      C4833   1.401       .  A
C4832     Br4843   1.932       .  S
C4833      C4834   1.408       .  A
C4833     Br4839   1.932       .  S
C4834      C4835   1.411       .  A
C4835      C4836   1.408       .  A
C4835     Br4844   1.931       .  S
C4836     Br4840   1.928       .  S
C4845      C4846   1.415   1_554  A
C4845      C4850   1.414       .  A
C4846      C4847   1.406   1_455  A
C4846     Br4858   1.933       .  S
C4847      C4848   1.409   1_656  A
C4847     Br4862   1.933       .  S
C4848      C4851   1.480   1_455  S
C4848      C4849   1.406       .  A
C4849      C4850   1.406       .  A
C4849     Br4857   1.930       .  S
C4850     Br4861   1.928       .  S
C4851      C4852   1.407       .  A
C4851      C4856   1.406   1_654  A
C4852      C4853   1.409       .  A
C4852     Br4863   1.930       .  S
C4853      C4854   1.417   1_554  A
C4853     Br4859   1.932       .  S
C4854      C4855   1.419       .  A
C4855      C4856   1.403   1_655  A
C4855     Br4864   1.936   1_655  S
C4856     Br4860   1.935       .  S
C4865      C4866   1.410       .  A
C4865      C4870   1.411       .  A
C4866      C4867   1.404       .  A
C4866     Br4878   1.924       .  S
C4867      C4868   1.407       .  A
C4867     Br4882   1.933       .  S
C4868      C4871   1.481       .  S
C4868      C4869   1.409       .  A
C4869      C4870   1.410       .  A
C4869     Br4877   1.927       .  S
C4870     Br4881   1.928       .  S
C4871      C4872   1.409       .  A
C4871      C4876   1.409       .  A
C4872      C4873   1.403       .  A
C4872     Br4883   1.932       .  S
C4873      C4874   1.409       .  A
C4873     Br4879   1.931       .  S
C4874      C4875   1.411       .  A
C4875      C4876   1.409       .  A
C4875     Br4884   1.931       .  S
C4876     Br4880   1.927       .  S
C4885      C4886   1.416       .  A
C4885      C4890   1.416   1_655  A
C4886      C4887   1.405       .  A
C4886     Br4898   1.934       .  S
C4887      C4888   1.407   1_655  A
C4887     Br4902   1.933       .  S
C4888      C4891   1.478   1_455  S
C4888      C4889   1.405       .  A
C4889      C4890   1.405       .  A
C4889     Br4897   1.932       .  S
C4890     Br4901   1.928       .  S
C4891      C4892   1.407       .  A
C4891      C4896   1.405   1_655  A
C4892      C4893   1.404       .  A
C4892     Br4903   1.934       .  S
C4893      C4894   1.415       .  A
C4893     Br4899   1.933       .  S
C4894      C4895   1.417   1_655  A
C4895      C4896   1.406       .  A
C4895     Br4904   1.934       .  S
C4896     Br4900   1.931       .  S
C4905      C4906   1.429       .  A
C4905      C4910   1.432       .  A
C4906      C4907   1.408       .  A
C4906     Br4918   1.937       .  S
C4907      C4908   1.401       .  A
C4907     Br4922   1.935       .  S
C4908      C4911   1.477       .  S
C4908      C4909   1.401       .  A
C4909      C4910   1.406       .  A
C4909     Br4917   1.938       .  S
C4910     Br4921   1.939       .  S
C4911      C4912   1.402       .  A
C4911      C4916   1.405       .  A
C4912      C4913   1.403       .  A
C4912     Br4923   1.933       .  S
C4913      C4914   1.422       .  A
C4913     Br4919   1.937   1_655  S
C4914      C4915   1.421       .  A
C4915      C4916   1.406       .  A
C4915     Br4924   1.932       .  S
C4916     Br4920   1.933       .  S
C4925      C4926   1.418       .  A
C4925      C4930   1.417       .  A
C4926      C4927   1.407       .  A
C4926     Br4938   1.933       .  S
C4927      C4928   1.406       .  A
C4927     Br4942   1.931       .  S
C4928      C4931   1.483       .  S
C4928      C4929   1.408       .  A
C4929      C4930   1.407       .  A
C4929     Br4937   1.933       .  S
C4930     Br4941   1.934       .  S
C4931      C4932   1.407       .  A
C4931      C4936   1.408       .  A
C4932      C4933   1.405       .  A
C4932     Br4943   1.931       .  S
C4933      C4934   1.414       .  A
C4933     Br4939   1.933       .  S
C4934      C4935   1.414       .  A
C4935      C4936   1.408       .  A
C4935     Br4944   1.925       .  S
C4936     Br4940   1.931       .  S
C4945      C4946   1.425       .  A
C4945      C4950   1.419       .  A
C4946      C4947   1.405       .  A
C4946     Br4958   1.938       .  S
C4947      C4948   1.403       .  A
C4947     Br4962   1.935       .  S
C4948      C4951   1.477   1_556  S
C4948      C4949   1.405   1_556  A
C4949      C4950   1.407   1_554  A
C4949     Br4957   1.931       .  S
C4950     Br4961   1.931   1_556  S
C4951      C4952   1.409       .  A
C4951      C4956   1.408       .  A
C4952      C4953   1.403       .  A
C4952     Br4963   1.931       .  S
C4953      C4954   1.407       .  A
C4953     Br4959   1.929       .  S
C4954      C4955   1.409       .  A
C4955      C4956   1.406       .  A
C4955     Br4964   1.929       .  S
C4956     Br4960   1.929   1_554  S
C4965      C4966   1.409       .  A
C4965      C4970   1.408       .  A
C4966      C4967   1.405       .  A
C4966     Br4978   1.932       .  S
C4967      C4968   1.409       .  A
C4967     Br4982   1.930       .  S
C4968      C4971   1.481       .  S
C4968      C4969   1.409       .  A
C4969      C4970   1.407       .  A
C4969     Br4977   1.929       .  S
C4970     Br4981   1.930       .  S
C4971      C4972   1.404       .  A
C4971      C4976   1.409       .  A
C4972      C4973   1.402       .  A
C4972     Br4983   1.933       .  S
C4973      C4974   1.416       .  A
C4973     Br4979   1.929       .  S
C4974      C4975   1.411       .  A
C4975      C4976   1.411       .  A
C4975     Br4984   1.923       .  S
C4976     Br4980   1.929       .  S
C4985      C4986   1.409       .  A
C4985      C4990   1.407       .  A
C4986      C4987   1.407       .  A
C4986     Br4998   1.930       .  S
C4987      C4988   1.409       .  A
C4987     Br5002   1.929       .  S
C4988      C4991   1.479       .  S
C4988      C4989   1.409       .  A
C4989      C4990   1.404       .  A
C4989     Br4997   1.930       .  S
C4990     Br5001   1.931       .  S
C4991      C4992   1.409       .  A
C4991      C4996   1.407       .  A
C4992      C4993   1.407       .  A
C4992     Br5003   1.928       .  S
C4993      C4994   1.409       .  A
C4993     Br4999   1.930       .  S
C4994      C4995   1.413       .  A
C4995      C4996   1.403       .  A
C4995     Br5004   1.932       .  S
C4996     Br5000   1.932       .  S
C5005      C5006   1.413       .  A
C5005      C5010   1.415   1_556  A
C5006      C5007   1.408   1_556  A
C5006     Br5018   1.932       .  S
C5007      C5008   1.411       .  A
C5007     Br5022   1.930   1_554  S
C5008      C5011   1.493       .  S
C5008      C5009   1.412       .  A
C5009      C5010   1.411       .  A
C5009     Br5017   1.932       .  S
C5010     Br5021   1.932       .  S
C5011      C5012   1.408       .  A
C5011      C5016   1.411       .  A
C5012      C5013   1.410       .  A
C5012     Br5023   1.932       .  S
C5013      C5014   1.420       .  A
C5013     Br5019   1.930       .  S
C5014      C5015   1.417       .  A
C5015      C5016   1.410       .  A
C5015     Br5024   1.935       .  S
C5016     Br5020   1.933   1_554  S
C5025      C5026   1.408       .  A
C5025      C5030   1.412       .  A
C5026      C5027   1.407       .  A
C5026     Br5038   1.929       .  S
C5027      C5028   1.410       .  A
C5027     Br5042   1.930       .  S
C5028      C5031   1.486       .  S
C5028      C5029   1.409       .  A
C5029      C5030   1.409       .  A
C5029     Br5037   1.929       .  S
C5030     Br5041   1.930       .  S
C5031      C5032   1.408       .  A
C5031      C5036   1.408       .  A
C5032      C5033   1.410       .  A
C5032     Br5043   1.929       .  S
C5033      C5034   1.414       .  A
C5033     Br5039   1.931       .  S
C5034      C5035   1.415       .  A
C5035      C5036   1.406       .  A
C5035     Br5044   1.933       .  S
C5036     Br5040   1.932       .  S
C5045      C5046   1.418       .  A
C5045      C5050   1.414       .  A
C5046      C5047   1.407       .  A
C5046     Br5058   1.935       .  S
C5047      C5048   1.409       .  A
C5047     Br5062   1.934       .  S
C5048      C5051   1.485       .  S
C5048      C5049   1.410       .  A
C5049      C5050   1.406       .  A
C5049     Br5057   1.932       .  S
C5050     Br5061   1.933       .  S
C5051      C5052   1.412       .  A
C5051      C5056   1.411       .  A
C5052      C5053   1.407       .  A
C5052     Br5063   1.932       .  S
C5053      C5054   1.408       .  A
C5053     Br5059   1.929       .  S
C5054      C5055   1.408       .  A
C5055      C5056   1.406       .  A
C5055     Br5064   1.927       .  S
C5056     Br5060   1.931       .  S
C5065      C5066   1.415       .  A
C5065      C5070   1.415       .  A
C5066      C5067   1.404       .  A
C5066     Br5078   1.933       .  S
C5067      C5068   1.407       .  A
C5067     Br5082   1.933       .  S
C5068      C5071   1.482       .  S
C5068      C5069   1.408       .  A
C5069      C5070   1.408       .  A
C5069     Br5077   1.931   1_455  S
C5070     Br5081   1.931       .  S
C5071      C5072   1.407       .  A
C5071      C5076   1.406   1_455  A
C5072      C5073   1.407       .  A
C5072     Br5083   1.933       .  S
C5073      C5074   1.416   1_455  A
C5073     Br5079   1.929       .  S
C5074      C5075   1.421       .  A
C5075      C5076   1.406       .  A
C5075     Br5084   1.937       .  S
C5076     Br5080   1.933       .  S
C5085      C5086   1.421       .  A
C5085      C5090   1.417       .  A
C5086      C5087   1.408       .  A
C5086     Br5098   1.934       .  S
C5087      C5088   1.405       .  A
C5087     Br5102   1.932       .  S
C5088      C5091   1.480       .  S
C5088      C5089   1.406       .  A
C5089      C5090   1.405       .  A
C5089     Br5097   1.934       .  S
C5090     Br5101   1.934       .  S
C5091      C5092   1.406       .  A
C5091      C5096   1.403       .  A
C5092      C5093   1.409       .  A
C5092     Br5103   1.930       .  S
C5093      C5094   1.420       .  A
C5093     Br5099   1.932       .  S
C5094      C5095   1.422       .  A
C5095      C5096   1.403       .  A
C5095     Br5104   1.936       .  S
C5096     Br5100   1.934       .  S
C5105      C5106   1.410       .  A
C5105      C5110   1.412       .  A
C5106      C5107   1.408       .  A
C5106     Br5118   1.930       .  S
C5107      C5108   1.409       .  A
C5107     Br5122   1.928       .  S
C5108      C5111   1.482       .  S
C5108      C5109   1.408       .  A
C5109      C5110   1.405       .  A
C5109     Br5117   1.932       .  S
C5110     Br5121   1.932       .  S
C5111      C5112   1.408       .  A
C5111      C5116   1.409       .  A
C5112      C5113   1.406       .  A
C5112     Br5123   1.930       .  S
C5113      C5114   1.412       .  A
C5113     Br5119   1.932       .  S
C5114      C5115   1.410       .  A
C5115      C5116   1.408       .  A
C5115     Br5124   1.930       .  S
C5116     Br5120   1.929       .  S
C5125      C5126   1.414       .  A
C5125      C5130   1.416       .  A
C5126      C5127   1.410       .  A
C5126     Br5138   1.931       .  S
C5127      C5128   1.410       .  A
C5127     Br5142   1.931       .  S
C5128      C5131   1.488       .  S
C5128      C5129   1.407       .  A
C5129      C5130   1.408       .  A
C5129     Br5137   1.930   1_455  S
C5130     Br5141   1.932   1_455  S
C5131      C5132   1.407       .  A
C5131      C5136   1.407       .  A
C5132      C5133   1.411       .  A
C5132     Br5143   1.930   1_455  S
C5133      C5134   1.419       .  A
C5133     Br5139   1.932   1_455  S
C5134      C5135   1.419       .  A
C5135      C5136   1.408       .  A
C5135     Br5144   1.933       .  S
C5136     Br5140   1.933       .  S
C5145      C5146   1.412       .  A
C5145      C5150   1.410       .  A
C5146      C5147   1.408       .  A
C5146     Br5158   1.931       .  S
C5147      C5148   1.409       .  A
C5147     Br5162   1.930       .  S
C5148      C5151   1.482       .  S
C5148      C5149   1.408       .  A
C5149      C5150   1.404       .  A
C5149     Br5157   1.931       .  S
C5150     Br5161   1.931       .  S
C5151      C5152   1.404       .  A
C5151      C5156   1.410       .  A
C5152      C5153   1.406       .  A
C5152     Br5163   1.932       .  S
C5153      C5154   1.419       .  A
C5153     Br5159   1.935       .  S
C5154      C5155   1.414       .  A
C5155      C5156   1.408       .  A
C5155     Br5164   1.931       .  S
C5156     Br5160   1.932       .  S
C5165      C5166   1.413       .  A
C5165      C5170   1.414       .  A
C5166      C5167   1.408       .  A
C5166     Br5178   1.932       .  S
C5167      C5168   1.410       .  A
C5167     Br5182   1.931       .  S
C5168      C5171   1.486       .  S
C5168      C5169   1.408       .  A
C5169      C5170   1.408       .  A
C5169     Br5177   1.930       .  S
C5170     Br5181   1.930       .  S
C5171      C5172   1.410       .  A
C5171      C5176   1.411       .  A
C5172      C5173   1.404       .  A
C5172     Br5183   1.932       .  S
C5173      C5174   1.407       .  A
C5173     Br5179   1.927       .  S
C5174      C5175   1.408       .  A
C5175      C5176   1.410       .  A
C5175     Br5184   1.926       .  S
C5176     Br5180   1.927       .  S
