geometry optimzed in LAMMPS
_audit_creation_date              2020-12-01 
_audit_creation_method            'lammps2cif' 
_symmetry_space_group_name_H-M    'P1' 
_symmetry_Int_Tables_number       1 
_symmetry_cell_setting            triclinic 
loop_ 
_symmetry_equiv_pos_as_xyz 
  x,y,z 
_cell_length_a                    52.913273 
_cell_length_b                    52.753213653127226 
_cell_length_c                    32.23456428659756 
_cell_angle_alpha                 89.87836578566029 
_cell_angle_beta                  90.21699324231687 
_cell_angle_gamma                 119.13779772663699 
loop_ 
_atom_site_label 
_atom_site_type_symbol 
_atom_site_fract_x 
_atom_site_fract_y 
_atom_site_fract_z 
_atom_site_charge 
C1          C  0.60406800  0.32048785  0.03410902     0.80400
N2          N  0.57465487  0.30611824  0.03561906    -0.77900
C3          C  0.56067865  0.29074132  0.06984611     0.82900
N4          N  0.57606851  0.28966184  0.10287825    -0.77800
C5          C  0.60543447  0.30394704  0.10174540     0.83000
N6          N  0.61928633  0.31962321  0.06761028    -0.79500
N7          N  0.38264303  0.23885067  0.11298819    -0.27100
N8          N  0.40738940  0.26344775  0.11509651    -0.34900
C9          C  0.40230480  0.28439649  0.12980353     0.01300
C10         C  0.37300316  0.27237472  0.13789472     0.07300
C11         C  0.36117568  0.24351002  0.12635175    -0.05800
H12         H  0.41876407  0.30674455  0.13447677     0.08000
H13         H  0.33857883  0.22712262  0.12732889     0.09200
Cu14       Cu  0.44695187  0.26729684  0.09799006     0.44200
Cu15       Cu  0.37931185  0.20019110  0.09158372     0.42000
Cu16       Cu  0.44583845  0.20202703  0.05957619     0.43900
N17         N  0.48382564  0.26508359  0.08183652    -0.34500
N18         N  0.48337720  0.24127022  0.06797806    -0.28700
C19         C  0.51069486  0.24685514  0.06128606    -0.04800
C20         C  0.52907619  0.27551059  0.07125645     0.07400
C21         C  0.51147362  0.28648035  0.08422961     0.01200
H22         H  0.51669735  0.23117070  0.05024023     0.08800
H23         H  0.51823406  0.30827438  0.09498849     0.07900
N24         N  0.40558192  0.16506559  0.05704948    -0.35900
N25         N  0.38137370  0.16436024  0.06902921    -0.28100
C26         C  0.35920730  0.13734882  0.06357204    -0.03300
C27         C  0.36998853  0.12012548  0.04779024     0.05300
C28         C  0.39943053  0.13854074  0.04357351     0.03400
H29         H  0.33682908  0.13079886  0.07022022     0.08500
H30         H  0.41525219  0.13303340  0.03168275     0.07300
C31         C  0.29629265  0.72907613  0.87081257     0.80400
N32         N  0.28048992  0.74301701  0.87288771    -0.77900
C33         C  0.26435759  0.74044311  0.90682890     0.82900
N34         N  0.26410181  0.72390974  0.93933106    -0.77800
C35         C  0.28003813  0.71003217  0.93800778     0.83000
N36         N  0.29613915  0.71272022  0.90370046    -0.79500
N37         N  0.21374206  0.87020223  0.93203610    -0.27100
N38         N  0.23811965  0.86992065  0.92426591    -0.34900
C39         C  0.26052757  0.89653574  0.93150453     0.01300
C40         C  0.24985512  0.91460909  0.94415744     0.07300
C41         C  0.22004375  0.89699087  0.94449887    -0.05800
H42         H  0.28304324  0.90215952  0.92881088     0.08000
H43         H  0.20400974  0.90269805  0.95457971     0.09200
Cu44       Cu  0.24013340  0.83274068  0.90835372     0.44200
Cu45       Cu  0.17301947  0.83369898  0.92774371     0.42000
Cu46       Cu  0.17328618  0.76544424  0.92239884     0.43900
N47         N  0.23747648  0.79207172  0.90814774    -0.34500
N48         N  0.21333005  0.76767300  0.91586263    -0.28700
C49         C  0.21919845  0.74554825  0.91705222    -0.04800
C50         C  0.24827939  0.75651644  0.90889252     0.07400
C51         C  0.25921695  0.78600200  0.90317291     0.01200
H52         H  0.20335330  0.72308960  0.92254880     0.08800
H53         H  0.28149013  0.80197503  0.89713625     0.07900
N54         N  0.13578073  0.76876489  0.92058645    -0.35900
N55         N  0.13562606  0.79372932  0.92219539    -0.28100
C56         C  0.10816411  0.78854676  0.91853724    -0.03300
C57         C  0.09010549  0.75886403  0.91497333     0.05300
C58         C  0.10845960  0.74707552  0.91587171     0.03400
H59         H  0.10181042  0.80518529  0.91807686     0.08500
H60         H  0.10246549  0.72443468  0.91241239     0.07300
C61         C  0.70538841  0.43125148  0.69726471     0.80400
N62         N  0.69356257  0.41561137  0.73228962    -0.77900
C63         C  0.69591040  0.42905247  0.76916121     0.82900
N64         N  0.71084359  0.45853954  0.77063394    -0.77800
C65         C  0.72226398  0.47435742  0.73570627     0.83000
N66         N  0.71925476  0.46070492  0.69893045    -0.79500
N67         N  0.78036348  0.65602691  0.71510331    -0.27100
N68         N  0.76030491  0.63188019  0.69760010    -0.34900
C69         C  0.74221849  0.63781168  0.67555822     0.01300
C70         C  0.75137472  0.66715308  0.67885127     0.07300
C71         C  0.77546551  0.67798293  0.70456981    -0.05800
H72         H  0.72336631  0.62177717  0.65903308     0.08000
H73         H  0.78808525  0.70004902  0.71565029     0.09200
Cu74       Cu  0.75652198  0.59128339  0.70632774     0.44200
Cu75       Cu  0.81264724  0.65763946  0.75399500     0.42000
Cu76       Cu  0.80239313  0.58711251  0.78510006     0.43900
N77         N  0.75289530  0.55244880  0.72684281    -0.34500
N78         N  0.76886227  0.55087853  0.75732165    -0.28700
C79         C  0.76027620  0.52281513  0.76529089    -0.04800
C80         C  0.73823719  0.50606389  0.73798487     0.07400
C81         C  0.73411714  0.52544803  0.71393353     0.01200
H82         H  0.76975400  0.51521346  0.78863857     0.08800
H83         H  0.71818643  0.52032093  0.68964592     0.07900
N84         N  0.83781863  0.62609554  0.80244994    -0.35900
N85         N  0.84178729  0.65188065  0.79110084    -0.28100
C86         C  0.86747986  0.67240139  0.80596588    -0.03300
C87         C  0.88014870  0.65888677  0.82807652     0.05300
C88         C  0.86081797  0.62951910  0.82469746     0.03400
H89         H  0.87661302  0.69542945  0.80019096     0.08500
H90         H  0.86351884  0.61186232  0.83688669     0.07300
C91         C  0.40459287  0.72374633  0.53926105     0.80400
N92         N  0.43401196  0.73896942  0.53776726    -0.77900
C93         C  0.44966269  0.75427441  0.57113811     0.82900
N94         N  0.43590309  0.75411803  0.60667090    -0.77800
C95         C  0.40655594  0.73867066  0.60915948     0.83000
N96         N  0.39116002  0.72386371  0.57511200    -0.79500
N97         N  0.62893016  0.80238383  0.57760978    -0.27100
N98         N  0.60427191  0.77765883  0.57855805    -0.34900
C99         C  0.61003254  0.75577700  0.58528697     0.01300
C100        C  0.63973827  0.76741759  0.58856771     0.07300
C101        C  0.65097768  0.79699820  0.58397980    -0.05800
H102        H  0.59381499  0.73318892  0.58849136     0.08000
H103        H  0.67354529  0.81344360  0.58543882     0.09200
Cu104      Cu  0.56414963  0.77554885  0.57263682     0.44200
Cu105      Cu  0.63162498  0.84240867  0.56852203     0.42000
Cu106      Cu  0.56460807  0.84443669  0.55655190     0.43900
N107        N  0.52701522  0.77959584  0.56904835    -0.34500
N108        N  0.52703055  0.80449481  0.56361074    -0.28700
C109        C  0.49945285  0.79936656  0.56370826    -0.04800
C110        C  0.48139259  0.76991979  0.56925600     0.07400
C111        C  0.49950913  0.75804500  0.57244274     0.01200
H112        H  0.49304125  0.81583498  0.55988555     0.08800
H113        H  0.49319908  0.73544137  0.57724976     0.07900
N114        N  0.60548258  0.88119745  0.55364137    -0.35900
N115        N  0.62981378  0.88017152  0.55822505    -0.28100
C116        C  0.65240054  0.90713352  0.55516868    -0.03300
C117        C  0.64192065  0.92624970  0.54882660     0.05300
C118        C  0.61205452  0.90901857  0.54753189     0.03400
H119        H  0.67486374  0.91246820  0.55771820     0.08500
H120        H  0.59628563  0.91619432  0.54261509     0.07300
N121        N  0.79418310  0.18117267  0.46127294    -0.27100
N122        N  0.77314905  0.18569716  0.47481143    -0.34900
C123        C  0.75305859  0.16152256  0.49369532     0.01300
C124        C  0.76204187  0.14091346  0.49265606     0.07300
C125        C  0.78812005  0.15404021  0.47160043    -0.05800
H126        H  0.73296230  0.15884394  0.50622912     0.08000
H127        H  0.80113965  0.14418676  0.46298714     0.09200
Cu128      Cu  0.77115680  0.22348301  0.46391567     0.44200
Cu129      Cu  0.82882669  0.21144436  0.42646883     0.42000
Cu130      Cu  0.82245166  0.27359971  0.39039593     0.43900
N131        N  0.76850695  0.25848945  0.43928291    -0.34500
N132        N  0.78633216  0.27584910  0.41052820    -0.28700
C133        C  0.77715122  0.29434369  0.39791118    -0.04800
C134        C  0.75283383  0.28873800  0.42054387     0.07400
C135        C  0.74794295  0.26594344  0.44650767     0.01200
H136        H  0.78748363  0.31073317  0.37419454     0.08800
H137        H  0.73003712  0.25474559  0.46767102     0.07900
N138        N  0.85833141  0.26832147  0.37971387    -0.35900
N139        N  0.86049609  0.24560319  0.39240581    -0.28100
C140        C  0.88652991  0.24920353  0.38135661    -0.03300
C141        C  0.90156133  0.27540010  0.36051624     0.05300
C142        C  0.88306329  0.28707846  0.36067522     0.03400
H143        H  0.89416678  0.23405889  0.38865743     0.08500
H144        H  0.88744701  0.30799132  0.34867396     0.07300
C145        C  0.70917058  0.32460509  0.44296059     0.80400
N146        N  0.72670316  0.31267305  0.44812992    -0.77900
C147        C  0.73431182  0.30200622  0.41501329     0.82900
N148        N  0.72424818  0.30312185  0.37666450    -0.77800
C149        C  0.70686787  0.31513025  0.37109799     0.83000
N150        N  0.69942319  0.32582714  0.40437807    -0.79500
C151        C  0.30599005  0.61680663  0.27503375     0.80400
N152        N  0.30767070  0.63116754  0.23906989    -0.77900
C153        C  0.29628556  0.61625832  0.20320024     0.82900
N154        N  0.28264226  0.58677211  0.20369642    -0.77800
C155        C  0.28104566  0.57231050  0.23927374     0.83000
N156        N  0.29277528  0.58731860  0.27475089    -0.79500
N157        N  0.23298868  0.39204315  0.23213469    -0.27100
N158        N  0.25713471  0.41680669  0.22638301    -0.34900
C159        C  0.27870917  0.41104774  0.21777873     0.01300
C160        C  0.26770732  0.38122758  0.21861770     0.07300
C161        C  0.23856630  0.36990755  0.22727941    -0.05800
H162        H  0.30078044  0.42737430  0.21129317     0.08000
H163        H  0.22262604  0.34721294  0.23024286     0.09200
Cu164      Cu  0.25953159  0.45729703  0.23048667     0.44200
Cu165      Cu  0.19360287  0.38947874  0.24695378     0.42000
Cu166      Cu  0.19265309  0.45745389  0.25556468     0.43900
N167        N  0.25623866  0.49484691  0.23671734    -0.34500
N168        N  0.23182841  0.49481489  0.24564420    -0.28700
C169        C  0.23696224  0.52239609  0.24769541    -0.04800
C170        C  0.26591235  0.54055011  0.23967027     0.07400
C171        C  0.27756508  0.52250300  0.23287419     0.01200
H172        H  0.22084923  0.52873211  0.25474611     0.08800
H173        H  0.29984612  0.52895126  0.22580762     0.07900
N174        N  0.15709461  0.41730155  0.26793363    -0.35900
N175        N  0.15747423  0.39249947  0.26494147    -0.28100
C176        C  0.13133944  0.37063015  0.27562540    -0.03300
C177        C  0.11371771  0.38220460  0.28632304     0.05300
C178        C  0.13069502  0.41185426  0.28048887     0.03400
H179        H  0.12564673  0.34796478  0.27593239     0.08500
H180        H  0.12436538  0.42829524  0.28509168     0.07300
C181        C  0.97209554  0.32193673  0.30203790    -0.22300
C182        C  0.99188201  0.31859150  0.32725186     0.09700
C183        C  0.98181519  0.29998483  0.36191801     0.10100
C184        C  0.95220083  0.28584847  0.37138911    -0.17200
C185        C  0.93221415  0.28943991  0.34662107    -0.27600
C186        C  0.94230851  0.30701686  0.31052518     0.18500
C187        C  0.02305861  0.33459783  0.31661185     0.12400
C188        C  0.00232283  0.29493614  0.38875484    -0.11900
H189        H  0.94473843  0.27231797  0.39884661     0.12700
C190        C  0.92252395  0.30952040  0.27899816    -0.22800
H191        H  0.97991991  0.33579034  0.27489354     0.08300
C192        C  0.03464719  0.32497605  0.28491093     0.04700
C193        C  0.06436879  0.34077634  0.27627705    -0.20000
C194        C  0.08284996  0.36593677  0.29872017    -0.12300
C195        C  0.07123857  0.37496142  0.33152340     0.13400
C196        C  0.04139827  0.35947986  0.33937137    -0.22700
C197        C  0.01567419  0.29793705  0.26044386    -0.05800
H198        H  0.07315882  0.33366131  0.25138522     0.14900
C199        C  0.08952134  0.39970043  0.36038337    -0.16000
H200        H  0.03242062  0.36645225  0.36422078     0.09200
H201        H  0.92777360  0.30476484  0.24762602     0.07100
H202        H  0.92573168  0.33194621  0.27916336     0.08300
H203        H  0.89940829  0.29389345  0.28414876     0.07300
H204        H  0.01862631  0.31568705  0.40294028     0.02200
H205        H  0.01354253  0.28598257  0.36961199     0.02700
H206        H  0.99082085  0.27932712  0.41419430     0.06200
H207        H  0.02826971  0.29320178  0.23721960     0.05200
H208        H  0.99876534  0.30060189  0.24365450    -0.00600
H209        H  0.00514333  0.27907550  0.28176371     0.00900
H210        H  0.08413373  0.41742539  0.35617013     0.04600
H211        H  0.11302700  0.40850264  0.35593069     0.06500
H212        H  0.08488745  0.39196393  0.39298765     0.07400
C213        C  0.67104637  0.00800939  0.55646729    -0.22300
C214        C  0.69361969  0.01820099  0.52758817     0.09700
C215        C  0.69945849  0.99825154  0.50644577     0.10100
C216        C  0.68233297  0.96844270  0.51439520    -0.17200
C217        C  0.65940429  0.95806951  0.54289896    -0.27600
C218        C  0.65406678  0.97823875  0.56485825     0.18500
C219        C  0.71068925  0.04985381  0.51960744     0.12400
C220        C  0.72341243  0.00841966  0.47496590    -0.11900
H221        H  0.68657659  0.95307791  0.49775048     0.12700
C222        C  0.63170467  0.96954756  0.59860022    -0.22800
H223        H  0.66691126  0.02348644  0.57302810     0.08300
C224        C  0.69993563  0.06406969  0.49377133     0.04700
C225        C  0.71701013  0.09393772  0.48639616    -0.20000
C226        C  0.74470863  0.10990159  0.50395308    -0.12300
C227        C  0.75524778  0.09573611  0.53056976     0.13400
C228        C  0.73810253  0.06582533  0.53789690    -0.22700
C229        C  0.67070625  0.04757459  0.47329446    -0.05800
H230        H  0.70895898  0.10479631  0.46600074     0.14900
C231        C  0.78393315  0.11150893  0.55273612    -0.16000
H232        H  0.74612810  0.05486317  0.55815294     0.09200
H233        H  0.61485994  0.97517896  0.58907489     0.07100
H234        H  0.64223986  0.98154002  0.62749178     0.08300
H235        H  0.62110742  0.94618346  0.60633750     0.07300
H236        H  0.74449980  0.02284184  0.49008020     0.02200
H237        H  0.71952297  0.02054598  0.44982630     0.02700
H238        H  0.72476902  0.98996569  0.46073275     0.06200
H239        H  0.66581719  0.06188290  0.45342636     0.05200
H240        H  0.65360106  0.03780991  0.49727504    -0.00600
H241        H  0.67009478  0.03008149  0.45350081     0.00900
H242        H  0.78040633  0.10830157  0.58672766     0.04600
H243        H  0.79537619  0.13518866  0.54688962     0.06500
H244        H  0.79810729  0.10260322  0.54275996     0.07400
C245        C  0.34495420  0.67005714  0.46588539    -0.22300
C246        C  0.35944085  0.67772833  0.42782288     0.09700
C247        C  0.38814456  0.70061119  0.42624187     0.10100
C248        C  0.40192426  0.71514983  0.46290471    -0.17200
C249        C  0.38777072  0.70756523  0.50159163    -0.27600
C250        C  0.35857899  0.68462623  0.50281904     0.18500
C251        C  0.34450279  0.66120488  0.38988031     0.12400
C252        C  0.40432275  0.70952519  0.38575380    -0.11900
H253        H  0.42402278  0.73269248  0.46108657     0.12700
C254        C  0.34153859  0.67468767  0.54255006    -0.22800
H255        H  0.32285747  0.65238537  0.46663379     0.08300
C256        C  0.34501692  0.63562612  0.37880295     0.04700
C257        C  0.33226154  0.62171368  0.34126865    -0.20000
C258        C  0.31902267  0.63280276  0.31428896    -0.12300
C259        C  0.31787585  0.65811211  0.32612283     0.13400
C260        C  0.33068966  0.67197645  0.36376250    -0.22700
C261        C  0.35929864  0.62320840  0.40646696    -0.05800
H262        H  0.33302079  0.60226277  0.33267528     0.14900
C263        C  0.30248412  0.67019251  0.30009367    -0.16000
H264        H  0.33021725  0.69152717  0.37276177     0.09200
H265        H  0.31973033  0.65572719  0.53749863     0.07100
H266        H  0.33830437  0.69235950  0.55553864     0.08300
H267        H  0.35305723  0.66808757  0.56529495     0.07300
H268        H  0.39285519  0.71664294  0.36368767     0.02200
H269        H  0.40568324  0.69089914  0.37219664     0.02700
H270        H  0.42669052  0.72772964  0.38987866     0.06200
H271        H  0.35791978  0.60316596  0.39317189     0.05200
H272        H  0.34852607  0.61772485  0.43720600    -0.00600
H273        H  0.38250877  0.63933660  0.41069053     0.00900
H274        H  0.30195835  0.68869647  0.31565159     0.04600
H275        H  0.27977707  0.65309894  0.29446012     0.06500
H276        H  0.31379552  0.67825864  0.27008584     0.07400
C277        C  0.73358598  0.72315730  0.63212655    -0.22300
C278        C  0.70360893  0.70943806  0.63834098     0.09700
C279        C  0.68943510  0.68175810  0.65690847     0.10100
C280        C  0.70565995  0.66846275  0.66910410    -0.17200
C281        C  0.73578723  0.68224521  0.66344604    -0.27600
C282        C  0.74989651  0.70986420  0.64408732     0.18500
C283        C  0.68750474  0.72458474  0.62553752     0.12400
C284        C  0.65732161  0.66658613  0.66477970    -0.11900
H285        H  0.69479704  0.64738103  0.68401448     0.12700
C286        C  0.78171241  0.72555579  0.63395054    -0.22800
H287        H  0.74429276  0.74431700  0.61738362     0.08300
C288        C  0.68872765  0.74761983  0.64918187     0.04700
C289        C  0.67308736  0.76130602  0.63594466    -0.20000
C290        C  0.65599126  0.75226375  0.59990830    -0.12300
C291        C  0.65495147  0.72929537  0.57600135     0.13400
C292        C  0.67070227  0.71569516  0.58926428    -0.22700
C293        C  0.70605582  0.75734782  0.68878939    -0.05800
H294        H  0.67382759  0.77889793  0.65418244     0.14900
C295        C  0.63840448  0.71921299  0.53577193    -0.16000
H296        H  0.67006852  0.69814476  0.57100085     0.09200
H297        H  0.79267000  0.74610728  0.65187299     0.07100
H298        H  0.78457633  0.73079780  0.60032583     0.08300
H299        H  0.79258775  0.71262361  0.64051956     0.07300
H300        H  0.64543175  0.66254541  0.63495446     0.02200
H301        H  0.65189325  0.68030756  0.68490271     0.02700
H302        H  0.64980633  0.64535594  0.68047314     0.06200
H303        H  0.70408355  0.77517889  0.70398455     0.05200
H304        H  0.72928557  0.76534684  0.68214815    -0.00600
H305        H  0.69822713  0.73886734  0.71083773     0.00900
H306        H  0.65346655  0.72117074  0.51050282     0.04600
H307        H  0.62783641  0.73201296  0.52642322     0.06500
H308        H  0.62149603  0.69611334  0.53865704     0.07400
C309        C  0.69301579  0.34066731  0.55178744    -0.22300
C310        C  0.69648223  0.36853880  0.54627949     0.10300
C311        C  0.70132323  0.38067334  0.50613326     0.10100
C312        C  0.70416356  0.36523085  0.47268847    -0.17200
C313        C  0.70220221  0.33789280  0.47847754    -0.27600
C314        C  0.69518397  0.32489709  0.51829821     0.18500
C315        C  0.69775766  0.38553388  0.58356578     0.12400
C316        C  0.70371684  0.40997020  0.49870086    -0.11900
H317        H  0.70900026  0.37504625  0.44213130     0.12700
C318        C  0.68903399  0.29428657  0.52665025    -0.22800
H319        H  0.68890175  0.33126363  0.58259248     0.08300
C320        C  0.67299776  0.37921585  0.60724211     0.04700
C321        C  0.67616422  0.39457908  0.64422708    -0.20000
C322        C  0.70349320  0.41617195  0.65785720    -0.12300
C323        C  0.72828661  0.42239248  0.63399048     0.13400
C324        C  0.72497084  0.40718221  0.59698794    -0.22700
C325        C  0.64331065  0.35657823  0.59324114    -0.05800
H326        H  0.65722117  0.38980961  0.66254716     0.14900
C327        C  0.75874811  0.44363284  0.64732140    -0.16000
H328        H  0.74397666  0.41155767  0.57906919     0.09200
H329        H  0.66758884  0.28199146  0.54182419     0.07100
H330        H  0.70584034  0.29464775  0.54773379     0.08300
H331        H  0.68809680  0.28218290  0.49815974     0.07300
H332        H  0.72240244  0.42692615  0.51614963     0.02200
H333        H  0.68358244  0.40964251  0.50914079     0.02700
H334        H  0.70687782  0.41596786  0.46532790     0.06200
H335        H  0.62625087  0.35483631  0.61489427     0.05200
H336        H  0.64215645  0.33503528  0.59163034    -0.00600
H337        H  0.63865680  0.36238280  0.56208811     0.00900
H338        H  0.77190338  0.43244364  0.64825457     0.04600
H339        H  0.76014286  0.45286551  0.67854478     0.06500
H340        H  0.76852296  0.46169326  0.62457500     0.07400
C341        C  0.00953977  0.70340203  0.91519856    -0.22300
C342        C  0.99931816  0.71458367  0.88384819     0.09700
C343        C  0.01879625  0.74072335  0.86391861     0.10100
C344        C  0.04808987  0.75492426  0.87556044    -0.17200
C345        C  0.05853534  0.74356183  0.90645277    -0.27600
C346        C  0.03882950  0.71762762  0.92705282     0.18500
C347        C  0.96816326  0.69877299  0.87230119     0.12400
C348        C  0.00886278  0.75323889  0.82952321    -0.11900
H349        H  0.06309887  0.77469737  0.85968095     0.12700
C350        C  0.04744085  0.70485377  0.96268612    -0.22800
H351        H  0.99442935  0.68359735  0.93097386     0.08300
C352        C  0.95617217  0.67263706  0.84950458     0.04700
C353        C  0.92714002  0.65974997  0.83665982    -0.20000
C354        C  0.90975486  0.67234935  0.84598246    -0.12300
C355        C  0.92145526  0.69778848  0.87065929     0.13400
C356        C  0.95055253  0.71074155  0.88315137    -0.22700
C357        C  0.97421000  0.65883326  0.83755734    -0.05800
H358        H  0.91822501  0.64016584  0.81805214     0.14900
C359        C  0.90389951  0.71144331  0.88564838    -0.16000
H360        H  0.95964469  0.73043782  0.90154312     0.09200
H361        H  0.04446267  0.68326753  0.95363756     0.07100
H362        H  0.03347059  0.70210771  0.98983182     0.08300
H363        H  0.07005805  0.71869316  0.97301643     0.07300
H364        H  0.99267829  0.75900510  0.84146471     0.02200
H365        H  0.99899627  0.73708672  0.80416962     0.02700
H366        H  0.02708777  0.77320129  0.81628886     0.06200
H367        H  0.96166915  0.63894067  0.81866263     0.05200
H368        H  0.98190569  0.65260254  0.86584044    -0.00600
H369        H  0.99312863  0.67436745  0.81907528     0.00900
H370        H  0.90553486  0.71347200  0.91996698     0.04600
H371        H  0.88061214  0.69853492  0.87805221     0.06500
H372        H  0.91252755  0.73343140  0.87193586     0.07400
C373        C  0.26170228  0.66231271  0.03455918    -0.22300
C374        C  0.28940148  0.67142050  0.05096138     0.09700
C375        C  0.31386376  0.69216885  0.02911748     0.10100
C376        C  0.31004655  0.70349563  0.99155759    -0.17200
C377        C  0.28232738  0.69484975  0.97543566    -0.27600
C378        C  0.25780716  0.67364255  0.99702805     0.18500
C379        C  0.29231460  0.65845245  0.09053553     0.12400
C380        C  0.34395697  0.70293234  0.04601010    -0.11900
H381        H  0.32882161  0.71988328  0.97526918     0.12700
C382        C  0.22734082  0.66175818  0.98092971    -0.22800
H383        H  0.24295568  0.64602816  0.05104385     0.08300
C384        C  0.28657221  0.66689714  0.12936906     0.04700
C385        C  0.28912292  0.65352127  0.16576264    -0.20000
C386        C  0.29721967  0.63181251  0.16427962    -0.12300
C387        C  0.30415873  0.62429156  0.12535749     0.13400
C388        C  0.30112631  0.63736301  0.08906480    -0.22700
C389        C  0.27776007  0.69000660  0.13236274    -0.05800
H390        H  0.28395579  0.65946957  0.19546037     0.14900
C391        C  0.31582874  0.60344991  0.12077130    -0.16000
H392        H  0.30600731  0.63126306  0.05924388     0.09200
H393        H  0.21453995  0.66700904  0.00308241     0.07100
H394        H  0.21713825  0.63779683  0.97796253     0.08300
H395        H  0.22627480  0.67037088  0.95000829     0.07300
H396        H  0.34866335  0.68466377  0.04857811     0.02200
H397        H  0.34578469  0.71264972  0.07715311     0.02700
H398        H  0.36060749  0.71971021  0.02562495     0.06200
H399        H  0.27453310  0.69435941  0.16507246     0.05200
H400        H  0.25713703  0.68302529  0.11536651    -0.00600
H401        H  0.29484219  0.71052704  0.11864088     0.00900
H402        H  0.30012263  0.58404424  0.10312305     0.04600
H403        H  0.32052852  0.59636243  0.15077648     0.06500
H404        H  0.33654481  0.61421393  0.10342005     0.07400
C405        C  0.34214154  0.75717951  0.77254416    -0.22300
C406        C  0.34283026  0.73229339  0.75917230     0.09700
C407        C  0.32877836  0.70659587  0.78281365     0.10100
C408        C  0.31414974  0.70632319  0.81929903    -0.17200
C409        C  0.31295517  0.73110416  0.83258942    -0.27600
C410        C  0.32738553  0.75699318  0.80883397     0.18500
C411        C  0.35886414  0.73385028  0.72063083     0.12400
C412        C  0.32900169  0.67941350  0.76920838    -0.11900
H413        H  0.30313100  0.68644100  0.83716675     0.12700
C414        C  0.32826157  0.78483217  0.82198382    -0.22800
H415        H  0.35326676  0.77690272  0.75434245     0.08300
C416        C  0.34623543  0.73068958  0.68107249     0.04700
C417        C  0.36241129  0.73263439  0.64554771    -0.20000
C418        C  0.39109071  0.73771450  0.64840339    -0.12300
C419        C  0.40358939  0.74066033  0.68848555     0.13400
C420        C  0.38728689  0.73877703  0.72389198    -0.22700
C421        C  0.31557341  0.72499589  0.67642556    -0.05800
H422        H  0.35254332  0.73031016  0.61529192     0.14900
C423        C  0.43363361  0.74483772  0.69476947    -0.16000
H424        H  0.39671472  0.74105091  0.75452219     0.09200
H425        H  0.34255195  0.80328340  0.80163355     0.07100
H426        H  0.33670354  0.79041675  0.85418147     0.08300
H427        H  0.30631917  0.78255920  0.82009506     0.07300
H428        H  0.35160970  0.68340701  0.76789664     0.02200
H429        H  0.31898112  0.67287294  0.73797639     0.02700
H430        H  0.31673329  0.66110969  0.79091438     0.06200
H431        H  0.30884048  0.72273222  0.64335350     0.05200
H432        H  0.31354176  0.74324479  0.68997311    -0.00600
H433        H  0.30063056  0.70459485  0.69276373     0.00900
H434        H  0.43882191  0.74466526  0.72816235     0.04600
H435        H  0.44992162  0.76611310  0.68200769     0.06500
H436        H  0.43551322  0.72701240  0.67940072     0.07400
C437        C  0.32437069  0.35622031  0.21558552    -0.22300
C438        C  0.31175017  0.33338924  0.18700576     0.09700
C439        C  0.28435819  0.32573448  0.17003298     0.10100
C440        C  0.27033005  0.34139520  0.18165867    -0.17200
C441        C  0.28313302  0.36469599  0.20970370    -0.27600
C442        C  0.31032696  0.37178159  0.22759710     0.18500
C443        C  0.32783305  0.31808201  0.17481202     0.12400
C444        C  0.27025742  0.30142607  0.13902752    -0.11900
H445        H  0.24951415  0.33583697  0.16801552     0.12700
C446        C  0.32477837  0.39466009  0.26058855    -0.22800
H447        H  0.34527681  0.36176076  0.22893949     0.08300
C448        C  0.34963388  0.32959250  0.14434628     0.04700
C449        C  0.36421340  0.31434269  0.13351393    -0.20000
C450        C  0.35759268  0.28783292  0.15251947    -0.12300
C451        C  0.33629940  0.27678867  0.18412721     0.13400
C452        C  0.32140327  0.29186874  0.19433174    -0.22700
C453        C  0.35720172  0.35779049  0.12290226    -0.05800
H454        H  0.38056184  0.32294024  0.10949868     0.14900
C455        C  0.32957661  0.25008942  0.20920479    -0.16000
H456        H  0.30498326  0.28339152  0.21828649     0.09200
H457        H  0.34540982  0.41251679  0.24842812     0.07100
H458        H  0.32959955  0.38494231  0.28801960     0.08300
H459        H  0.31120521  0.40385627  0.27173189     0.07300
H460        H  0.26668434  0.28077702  0.15330269     0.02200
H461        H  0.28443011  0.30624006  0.11149570     0.02700
H462        H  0.24900152  0.29846101  0.12836582     0.06200
H463        H  0.37449512  0.36356985  0.09947137     0.05200
H464        H  0.36498209  0.37559955  0.14603995    -0.00600
H465        H  0.33779412  0.35600713  0.10686641     0.00900
H466        H  0.33205002  0.25562046  0.24273814     0.04600
H467        H  0.34418032  0.24113706  0.20257515     0.06500
H468        H  0.30691367  0.23304985  0.20323137     0.07400
C469        C  0.27861260  0.99563540  0.96282082    -0.22300
C470        C  0.30232865  0.00215622  0.98870317     0.09700
C471        C  0.30873924  0.98005911  0.99986860     0.10100
C472        C  0.29118267  0.95178721  0.98489436    -0.17200
C473        C  0.26713330  0.94496516  0.95927954    -0.27600
C474        C  0.26088318  0.96731472  0.94790271     0.18500
C475        C  0.32020415  0.03231772  0.00380993     0.12400
C476        C  0.33423423  0.98641492  0.02736341    -0.11900
H477        H  0.29612015  0.93482420  0.99359595     0.12700
C478        C  0.23641679  0.96193185  0.91881021    -0.22800
H479        H  0.27403292  0.01286883  0.95422520     0.08300
C480        C  0.34275320  0.05358472  0.97965820     0.04700
C481        C  0.35904467  0.08187296  0.99531048    -0.20000
C482        C  0.35334889  0.08936887  0.03463110    -0.12300
C483        C  0.33140111  0.06762138  0.05945870     0.13400
C484        C  0.31478626  0.03952894  0.04333459    -0.22700
C485        C  0.34956375  0.04637166  0.93741737    -0.05800
H486        H  0.37595683  0.09839093  0.97636644     0.14900
C487        C  0.32567449  0.07265411  0.10363405    -0.16000
H488        H  0.29781530  0.02290309  0.06209780     0.09200
H489        H  0.23655995  0.98242521  0.91035189     0.07100
H490        H  0.21534620  0.94770390  0.93374489     0.08300
H491        H  0.23836120  0.95176207  0.88975348     0.07300
H492        H  0.33160475  0.99452775  0.05790176     0.02200
H493        H  0.35447356  0.00314151  0.01263365     0.02700
H494        H  0.33637650  0.96675152  0.03281501     0.06200
H495        H  0.36800035  0.06545051  0.92273847     0.05200
H496        H  0.33042064  0.03900265  0.91678726    -0.00600
H497        H  0.35534108  0.02882871  0.94016976     0.00900
H498        H  0.30365100  0.07016169  0.10594995     0.04600
H499        H  0.34157592  0.09424479  0.11573435     0.06500
H500        H  0.32694637  0.05635422  0.12412742     0.07400
C501        C  0.63254289  0.28057964  0.19583732    -0.22300
C502        C  0.65182231  0.30764372  0.21293745     0.09700
C503        C  0.65692560  0.33328034  0.19222569     0.10100
C504        C  0.64226820  0.33126023  0.15500734    -0.17200
C505        C  0.62221536  0.30422017  0.13851930    -0.27600
C506        C  0.61768307  0.27848812  0.15874750     0.18500
C507        C  0.66563353  0.30879098  0.25340944     0.12400
C508        C  0.67701794  0.36273394  0.21019527    -0.11900
H509        H  0.64566801  0.35092252  0.13947282     0.12700
C510        C  0.59797027  0.24857486  0.14179820    -0.22800
H511        H  0.62893737  0.26095272  0.21172298     0.08300
C512        C  0.65033371  0.30429356  0.29082874     0.04700
C513        C  0.66460997  0.30694532  0.32860465    -0.20000
C514        C  0.69396059  0.31431295  0.32994908    -0.12300
C515        C  0.70947943  0.31957245  0.29223599     0.13400
C516        C  0.69486570  0.31607879  0.25445234    -0.22700
C517        C  0.61905844  0.29710198  0.29090015    -0.05800
H518        H  0.65264165  0.30291712  0.35729574     0.14900
C519        C  0.74160360  0.33039172  0.29025836    -0.16000
H520        H  0.70660455  0.32003472  0.22554542     0.09200
H521        H  0.57999345  0.23638142  0.16388491     0.07100
H522        H  0.61037886  0.23676860  0.13796819     0.08300
H523        H  0.58863956  0.24884713  0.11110639     0.07300
H524        H  0.69923879  0.36575916  0.21269688     0.02200
H525        H  0.66939545  0.36462557  0.24150004     0.02700
H526        H  0.67796276  0.38049367  0.19055046     0.06200
H527        H  0.61051222  0.29482318  0.32290743     0.05200
H528        H  0.60567312  0.27630667  0.27438112    -0.00600
H529        H  0.61682190  0.31464887  0.27514153     0.00900
H530        H  0.74562134  0.31360423  0.27580179     0.04600
H531        H  0.75244668  0.33632803  0.32086455     0.06500
H532        H  0.75199542  0.35035070  0.27096449     0.07400
C533        C  0.65820979  0.35614109  0.94582231    -0.22300
C534        C  0.64427573  0.36812897  0.92245499     0.09700
C535        C  0.61762591  0.36498343  0.93605335     0.10100
C536        C  0.60529398  0.34957201  0.97269578    -0.17200
C537        C  0.61907416  0.33737328  0.99640912    -0.27600
C538        C  0.64610327  0.34090050  0.98274569     0.18500
C539        C  0.65790585  0.38367769  0.88353979     0.12400
C540        C  0.60237071  0.37815953  0.91210308    -0.11900
H541        H  0.58479313  0.34722019  0.98299982     0.12700
C542        C  0.66204643  0.32804705  0.00580361    -0.22800
H543        H  0.67866289  0.35868015  0.93490836     0.08300
C544        C  0.68113008  0.41227311  0.88395995     0.04700
C545        C  0.69324680  0.42611423  0.84626637    -0.20000
C546        C  0.68262214  0.41217128  0.80782368    -0.12300
C547        C  0.65910756  0.38325973  0.80773201     0.13400
C548        C  0.64724903  0.36947590  0.84566034    -0.22700
C549        C  0.69276526  0.42835305  0.92419717    -0.05800
H550        H  0.71115765  0.44810073  0.84701768     0.14900
C551        C  0.64559768  0.36678724  0.76829216    -0.16000
H552        H  0.62933011  0.34746570  0.84589332     0.09200
H553        H  0.66918661  0.33854126  0.03661026     0.07100
H554        H  0.68173315  0.33145044  0.98895573     0.08300
H555        H  0.64781608  0.30430239  0.00961255     0.07300
H556        H  0.59687600  0.36866152  0.88049868     0.02200
H557        H  0.61665465  0.40199275  0.90963468     0.02700
H558        H  0.58198444  0.37412092  0.92745708     0.06200
H559        H  0.71063965  0.45078696  0.91899778     0.05200
H560        H  0.70122764  0.41679408  0.94374655    -0.00600
H561        H  0.67522637  0.42971400  0.94113097     0.00900
H562        H  0.66147033  0.36287115  0.75101330     0.04600
H563        H  0.63806340  0.37918399  0.74876773     0.06500
H564        H  0.62656222  0.34523669  0.77460960     0.07400
loop_ 
_geom_bond_atom_site_label_1 
_geom_bond_atom_site_label_2 
_geom_bond_distance 
_geom_bond_site_symmetry_2 
_ccdc_geom_bond_type 
C1            N2   1.360       .  A
C1            N6   1.359       .  A
C1          C537   1.488   1_554  S
N2            C3   1.357       .  A
C3            N4   1.356       .  A
C3           C20   1.461       .  S
N4            C5   1.358       .  A
C5            N6   1.358       .  A
C5          C505   1.474       .  S
N7           C11   1.346       .  A
N7            N8   1.322       .  A
N7          Cu15   2.079       .  S
N8            C9   1.346       .  A
N8          Cu14   2.079       .  S
C9           C10   1.385       .  A
C9           H12   1.082       .  S
C10         C450   1.485       .  S
C10          C11   1.386       .  A
C11          H13   1.082       .  S
Cu14         N17   2.079       .  S
Cu15         N25   2.079       .  S
Cu16         N18   2.073       .  S
Cu16         N24   2.074       .  S
N17          C21   1.346       .  A
N17          N18   1.323       .  A
N18          C19   1.345       .  A
C19          C20   1.379       .  A
C19          H22   1.082       .  S
C20          C21   1.381       .  A
C21          H23   1.082       .  S
N24          C28   1.346       .  A
N24          N25   1.322       .  A
N25          C26   1.345       .  A
C26          C27   1.385       .  A
C26          H29   1.082       .  S
C27         C482   1.482       .  S
C27          C28   1.384       .  A
C28          H30   1.083       .  S
C31          N32   1.358       .  A
C31          N36   1.363       .  A
C31         C409   1.491       .  S
N32          C33   1.356       .  A
C33          N34   1.358       .  A
C33          C50   1.466       .  S
N34          C35   1.360       .  A
C35          N36   1.363       .  A
C35         C377   1.484       .  S
N37          C41   1.346       .  A
N37          N38   1.322       .  A
N37         Cu45   2.080       .  S
N38          C39   1.345       .  A
N38         Cu44   2.081       .  S
C39          C40   1.386       .  A
C39          H42   1.082       .  S
C40         C473   1.487       .  S
C40          C41   1.387       .  A
C41          H43   1.080       .  S
Cu44         N47   2.081       .  S
Cu45         N55   2.081       .  S
Cu46         N48   2.076       .  S
Cu46         N54   2.076       .  S
N47          C51   1.346       .  A
N47          N48   1.323       .  A
N48          C49   1.346       .  A
C49          C50   1.381       .  A
C49          H52   1.082       .  S
C50          C51   1.383       .  A
C51          H53   1.082       .  S
N54          C58   1.346       .  A
N54          N55   1.322       .  A
N55          C56   1.346       .  A
C56          C57   1.386       .  A
C56          H59   1.082       .  S
C57         C345   1.484       .  S
C57          C58   1.385       .  A
C58          H60   1.082       .  S
C61          N62   1.359       .  A
C61          N66   1.358       .  A
C61         C322   1.477       .  S
N62          C63   1.359       .  A
C63          N64   1.360       .  A
C63         C546   1.494       .  S
N64          C65   1.356       .  A
C65          N66   1.356       .  A
C65          C80   1.463       .  S
N67          C71   1.347       .  A
N67          N68   1.323       .  A
N67         Cu75   2.083       .  S
N68          C69   1.343       .  A
N68         Cu74   2.070       .  S
C69          C70   1.383       .  A
C69          H72   1.082       .  S
C70         C281   1.482       .  S
C70          C71   1.387       .  A
C71          H73   1.082       .  S
Cu74         N77   2.070       .  S
Cu75         N85   2.084       .  S
Cu76         N78   2.073       .  S
Cu76         N84   2.073       .  S
N77          C81   1.346       .  A
N77          N78   1.322       .  A
N78          C79   1.345       .  A
C79          C80   1.381       .  A
C79          H82   1.082       .  S
C80          C81   1.381       .  A
C81          H83   1.082       .  S
N84          C88   1.345       .  A
N84          N85   1.322       .  A
N85          C86   1.347       .  A
C86          C87   1.388       .  A
C86          H89   1.083       .  S
C87         C354   1.484       .  S
C87          C88   1.384       .  A
C88          H90   1.082       .  S
C91          N92   1.361       .  A
C91          N96   1.361       .  A
C91         C249   1.501       .  S
N92          C93   1.357       .  A
C93          N94   1.357       .  A
C93         C110   1.468       .  S
N94          C95   1.360       .  A
C95          N96   1.362       .  A
C95         C418   1.497       .  S
N97         C101   1.343       .  A
N97          N98   1.322       .  A
N97        Cu105   2.066       .  S
N98          C99   1.347       .  A
N98        Cu104   2.079       .  S
C99         C100   1.385       .  A
C99         H102   1.082       .  S
C100        C290   1.476       .  S
C100        C101   1.381       .  A
C101        H103   1.082       .  S
Cu104       N107   2.080       .  S
Cu105       N115   2.067       .  S
Cu106       N108   2.090       .  S
Cu106       N114   2.089       .  S
N107        C111   1.346       .  A
N107        N108   1.324       .  A
N108        C109   1.348       .  A
C109        C110   1.383       .  A
C109        H112   1.082       .  S
C110        C111   1.380       .  A
C111        H113   1.081       .  S
N114        C118   1.348       .  A
N114        N115   1.322       .  A
N115        C116   1.344       .  A
C116        C117   1.382       .  A
C116        H119   1.083       .  S
C117        C217   1.482       .  S
C117        C118   1.388       .  A
C118        H120   1.082       .  S
N121        C125   1.347       .  A
N121        N122   1.322       .  A
N121       Cu129   2.080       .  S
N122        C123   1.345       .  A
N122       Cu128   2.076       .  S
C123        C124   1.383       .  A
C123        H126   1.082       .  S
C124        C226   1.480       .  S
C124        C125   1.385       .  A
C125        H127   1.083       .  S
Cu128       N131   2.075       .  S
Cu129       N139   2.080       .  S
Cu130       N132   2.078       .  S
Cu130       N138   2.079       .  S
N131        C135   1.346       .  A
N131        N132   1.323       .  A
N132        C133   1.346       .  A
C133        C134   1.382       .  A
C133        H136   1.082       .  S
C134        C147   1.466       .  S
C134        C135   1.381       .  A
C135        H137   1.082       .  S
N138        C142   1.346       .  A
N138        N139   1.322       .  A
N139        C140   1.345       .  A
C140        C141   1.387       .  A
C140        H143   1.082       .  S
C141        C185   1.488       .  S
C141        C142   1.387       .  A
C142        H144   1.082       .  S
C145        N146   1.361       .  A
C145        N150   1.358       .  A
C145        C313   1.482       .  S
N146        C147   1.358       .  A
C147        N148   1.357       .  A
N148        C149   1.358       .  A
C149        N150   1.359       .  A
C149        C514   1.481       .  S
C151        N152   1.363       .  A
C151        N156   1.360       .  A
C151        C258   1.490       .  S
N152        C153   1.362       .  A
C153        N154   1.359       .  A
C153        C386   1.485       .  S
N154        C155   1.356       .  A
C155        N156   1.356       .  A
C155        C170   1.464       .  S
N157        C161   1.346       .  A
N157        N158   1.322       .  A
N157       Cu165   2.079       .  S
N158        C159   1.346       .  A
N158       Cu164   2.082       .  S
C159        C160   1.387       .  A
C159        H162   1.082       .  S
C160        C441   1.485       .  S
C160        C161   1.385       .  A
C161        H163   1.082       .  S
Cu164       N167   2.081       .  S
Cu165       N175   2.079       .  S
Cu166       N168   2.075       .  S
Cu166       N174   2.075       .  S
N167        C171   1.347       .  A
N167        N168   1.324       .  A
N168        C169   1.346       .  A
C169        C170   1.380       .  A
C169        H172   1.081       .  S
C170        C171   1.381       .  A
C171        H173   1.081       .  S
N174        C178   1.346       .  A
N174        N175   1.322       .  A
N175        C176   1.345       .  A
C176        C177   1.385       .  A
C176        H179   1.082       .  S
C177        C194   1.484       .  S
C177        C178   1.386       .  A
C178        H180   1.082       .  S
C181        C182   1.400       .  A
C181        C186   1.405       .  A
C181        H191   1.085       .  S
C182        C187   1.483   1_655  S
C182        C183   1.409       .  A
C183        C184   1.403       .  A
C183        C188   1.507   1_655  S
C184        C185   1.407       .  A
C184        H189   1.084       .  S
C185        C186   1.420       .  A
C186        C190   1.507       .  S
C187        C192   1.410       .  A
C187        C196   1.400       .  A
C188        H204   1.110       .  S
C188        H205   1.111       .  S
C188        H206   1.111   1_455  S
C190        H201   1.111       .  S
C190        H202   1.110       .  S
C190        H203   1.106       .  S
C192        C193   1.404       .  A
C192        C197   1.506       .  S
C193        C194   1.406       .  A
C193        H198   1.084       .  S
C194        C195   1.419       .  A
C195        C196   1.404       .  A
C195        C199   1.508       .  S
C196        H200   1.085       .  S
C197        H207   1.111       .  S
C197        H208   1.110   1_455  S
C197        H209   1.110       .  S
C199        H210   1.110       .  S
C199        H211   1.105       .  S
C199        H212   1.111       .  S
C213        C214   1.401       .  A
C213        C218   1.405   1_545  A
C213        H223   1.085       .  S
C214        C219   1.484       .  S
C214        C215   1.410   1_545  A
C215        C216   1.404       .  A
C215        C220   1.506   1_565  S
C216        C217   1.405       .  A
C216        H221   1.084       .  S
C217        C218   1.418       .  A
C218        C222   1.508       .  S
C219        C224   1.410       .  A
C219        C228   1.402       .  A
C220        H236   1.110       .  S
C220        H237   1.110       .  S
C220        H238   1.111   1_545  S
C222        H233   1.110       .  S
C222        H234   1.111       .  S
C222        H235   1.106       .  S
C224        C225   1.403       .  A
C224        C229   1.506       .  S
C225        C226   1.404       .  A
C225        H230   1.084       .  S
C226        C227   1.416       .  A
C227        C228   1.405       .  A
C227        C231   1.507       .  S
C228        H232   1.085       .  S
C229        H239   1.111       .  S
C229        H240   1.110       .  S
C229        H241   1.110       .  S
C231        H242   1.111       .  S
C231        H243   1.107       .  S
C231        H244   1.110       .  S
C245        C246   1.400       .  A
C245        C250   1.409       .  A
C245        H255   1.084       .  S
C246        C251   1.485       .  S
C246        C247   1.408       .  A
C247        C248   1.403       .  A
C247        C252   1.507       .  S
C248        C249   1.410       .  A
C248        H253   1.083       .  S
C249        C250   1.425       .  A
C250        C254   1.508       .  S
C251        C256   1.410       .  A
C251        C260   1.401       .  A
C252        H268   1.110       .  S
C252        H269   1.110       .  S
C252        H270   1.111       .  S
C254        H265   1.111       .  S
C254        H266   1.110       .  S
C254        H267   1.110       .  S
C256        C257   1.405       .  A
C256        C261   1.507       .  S
C257        C258   1.408       .  A
C257        H262   1.083       .  S
C258        C259   1.419       .  A
C259        C260   1.408       .  A
C259        C263   1.507       .  S
C260        H264   1.084       .  S
C261        H271   1.111       .  S
C261        H272   1.110       .  S
C261        H273   1.110       .  S
C263        H274   1.111       .  S
C263        H275   1.111       .  S
C263        H276   1.109       .  S
C277        C278   1.401       .  A
C277        C282   1.404       .  A
C277        H287   1.085       .  S
C278        C283   1.481       .  S
C278        C279   1.409       .  A
C279        C280   1.402       .  A
C279        C284   1.507       .  S
C280        C281   1.406       .  A
C280        H285   1.084       .  S
C281        C282   1.418       .  A
C282        C286   1.507       .  S
C283        C288   1.410       .  A
C283        C292   1.402       .  A
C284        H300   1.110       .  S
C284        H301   1.110       .  S
C284        H302   1.111       .  S
C286        H297   1.111       .  S
C286        H298   1.111       .  S
C286        H299   1.106       .  S
C288        C289   1.402       .  A
C288        C293   1.507       .  S
C289        C290   1.403       .  A
C289        H294   1.084       .  S
C290        C291   1.416       .  A
C291        C292   1.404       .  A
C291        C295   1.507       .  S
C292        H296   1.085       .  S
C293        H303   1.111       .  S
C293        H304   1.110       .  S
C293        H305   1.110       .  S
C295        H306   1.111       .  S
C295        H307   1.107       .  S
C295        H308   1.110       .  S
C309        C310   1.401       .  A
C309        C314   1.403       .  A
C309        H319   1.083       .  S
C310        C315   1.483       .  S
C310        C311   1.410       .  A
C311        C312   1.405       .  A
C311        C316   1.507       .  S
C312        C313   1.407       .  A
C312        H317   1.084       .  S
C313        C314   1.417       .  A
C314        C318   1.508       .  S
C315        C320   1.411       .  A
C315        C324   1.400       .  A
C316        H332   1.109       .  S
C316        H333   1.111       .  S
C316        H334   1.111       .  S
C318        H329   1.111       .  S
C318        H330   1.110       .  S
C318        H331   1.107       .  S
C320        C321   1.406       .  A
C320        C325   1.506       .  S
C321        C322   1.405       .  A
C321        H326   1.084       .  S
C322        C323   1.417       .  A
C323        C324   1.401       .  A
C323        C327   1.509       .  S
C324        H328   1.084       .  S
C325        H335   1.111       .  S
C325        H336   1.109       .  S
C325        H337   1.110       .  S
C327        H338   1.111       .  S
C327        H339   1.106       .  S
C327        H340   1.110       .  S
C341        C342   1.402   1_455  A
C341        C346   1.405       .  A
C341        H351   1.085   1_455  S
C342        C347   1.486       .  S
C342        C343   1.412   1_655  A
C343        C344   1.404       .  A
C343        C348   1.507       .  S
C344        C345   1.404       .  A
C344        H349   1.084       .  S
C345        C346   1.418       .  A
C346        C350   1.508       .  S
C347        C352   1.412       .  A
C347        C356   1.402       .  A
C348        H364   1.109   1_455  S
C348        H365   1.110   1_455  S
C348        H366   1.110       .  S
C350        H361   1.110       .  S
C350        H362   1.110       .  S
C350        H363   1.106       .  S
C352        C353   1.405       .  A
C352        C357   1.507       .  S
C353        C354   1.406       .  A
C353        H358   1.084       .  S
C354        C355   1.417       .  A
C355        C356   1.404       .  A
C355        C359   1.507       .  S
C356        H360   1.085       .  S
C357        H367   1.111       .  S
C357        H368   1.110       .  S
C357        H369   1.110       .  S
C359        H370   1.111       .  S
C359        H371   1.106       .  S
C359        H372   1.110       .  S
C373        C374   1.403       .  A
C373        C378   1.407   1_554  A
C373        H383   1.085       .  S
C374        C379   1.489       .  S
C374        C375   1.412       .  A
C375        C376   1.406   1_554  A
C375        C380   1.506       .  S
C376        C377   1.405       .  A
C376        H381   1.084       .  S
C377        C378   1.418       .  A
C378        C382   1.507       .  S
C379        C384   1.412       .  A
C379        C388   1.401       .  A
C380        H396   1.109       .  S
C380        H397   1.110       .  S
C380        H398   1.111       .  S
C382        H393   1.110   1_556  S
C382        H394   1.111       .  S
C382        H395   1.107       .  S
C384        C385   1.407       .  A
C384        C389   1.506       .  S
C385        C386   1.406       .  A
C385        H390   1.085       .  S
C386        C387   1.419       .  A
C387        C388   1.405       .  A
C387        C391   1.508       .  S
C388        H392   1.086       .  S
C389        H399   1.111       .  S
C389        H400   1.110       .  S
C389        H401   1.110       .  S
C391        H402   1.110       .  S
C391        H403   1.106       .  S
C391        H404   1.111       .  S
C405        C406   1.400       .  A
C405        C410   1.406       .  A
C405        H415   1.085       .  S
C406        C411   1.487       .  S
C406        C407   1.411       .  A
C407        C408   1.407       .  A
C407        C412   1.506       .  S
C408        C409   1.407       .  A
C408        H413   1.085       .  S
C409        C410   1.421       .  A
C410        C414   1.508       .  S
C411        C416   1.409       .  A
C411        C420   1.400       .  A
C412        H428   1.110       .  S
C412        H429   1.110       .  S
C412        H430   1.111       .  S
C414        H425   1.111       .  S
C414        H426   1.110       .  S
C414        H427   1.109       .  S
C416        C417   1.406       .  A
C416        C421   1.506       .  S
C417        C418   1.409       .  A
C417        H422   1.083       .  S
C418        C419   1.423       .  A
C419        C420   1.407       .  A
C419        C423   1.508       .  S
C420        H424   1.085       .  S
C421        H431   1.111       .  S
C421        H432   1.110       .  S
C421        H433   1.110       .  S
C423        H434   1.111       .  S
C423        H435   1.109       .  S
C423        H436   1.110       .  S
C437        C438   1.401       .  A
C437        C442   1.405       .  A
C437        H447   1.085       .  S
C438        C443   1.485       .  S
C438        C439   1.410       .  A
C439        C440   1.405       .  A
C439        C444   1.506       .  S
C440        C441   1.406       .  A
C440        H445   1.084       .  S
C441        C442   1.419       .  A
C442        C446   1.508       .  S
C443        C448   1.410       .  A
C443        C452   1.401       .  A
C444        H460   1.110       .  S
C444        H461   1.110       .  S
C444        H462   1.111       .  S
C446        H457   1.110       .  S
C446        H458   1.111       .  S
C446        H459   1.106       .  S
C448        C449   1.404       .  A
C448        C453   1.506       .  S
C449        C450   1.405       .  A
C449        H454   1.084       .  S
C450        C451   1.419       .  A
C451        C452   1.406       .  A
C451        C455   1.508       .  S
C452        H456   1.085       .  S
C453        H463   1.111       .  S
C453        H464   1.110       .  S
C453        H465   1.110       .  S
C455        H466   1.111       .  S
C455        H467   1.106       .  S
C455        H468   1.110       .  S
C469        C470   1.401   1_565  A
C469        C474   1.406       .  A
C469        H479   1.084   1_565  S
C470        C475   1.482   1_556  S
C470        C471   1.409   1_545  A
C471        C472   1.404       .  A
C471        C476   1.506   1_556  S
C472        C473   1.406       .  A
C472        H477   1.083       .  S
C473        C474   1.418       .  A
C474        C478   1.507       .  S
C475        C480   1.410   1_554  A
C475        C484   1.400       .  A
C476        H492   1.110       .  S
C476        H493   1.110   1_565  S
C476        H494   1.111       .  S
C478        H489   1.111       .  S
C478        H490   1.107       .  S
C478        H491   1.110       .  S
C480        C481   1.404       .  A
C480        C485   1.506       .  S
C481        C482   1.405   1_556  A
C481        H486   1.084       .  S
C482        C483   1.418       .  A
C483        C484   1.404       .  A
C483        C487   1.508       .  S
C484        H488   1.085       .  S
C485        H495   1.111       .  S
C485        H496   1.110       .  S
C485        H497   1.110       .  S
C487        H498   1.110       .  S
C487        H499   1.106       .  S
C487        H500   1.111       .  S
C501        C502   1.401       .  A
C501        C506   1.403       .  A
C501        H511   1.085       .  S
C502        C507   1.480       .  S
C502        C503   1.411       .  A
C503        C504   1.402       .  A
C503        C508   1.507       .  S
C504        C505   1.403       .  A
C504        H509   1.084       .  S
C505        C506   1.416       .  A
C506        C510   1.508       .  S
C507        C512   1.409       .  A
C507        C516   1.401       .  A
C508        H524   1.110       .  S
C508        H525   1.111       .  S
C508        H526   1.111       .  S
C510        H521   1.110       .  S
C510        H522   1.111       .  S
C510        H523   1.107       .  S
C512        C513   1.401       .  A
C512        C517   1.507       .  S
C513        C514   1.406       .  A
C513        H518   1.084       .  S
C514        C515   1.419       .  A
C515        C516   1.404       .  A
C515        C519   1.508       .  S
C516        H520   1.084       .  S
C517        H527   1.111       .  S
C517        H528   1.110       .  S
C517        H529   1.110       .  S
C519        H530   1.110       .  S
C519        H531   1.106       .  S
C519        H532   1.111       .  S
C533        C534   1.400       .  A
C533        C538   1.405       .  A
C533        H543   1.084       .  S
C534        C539   1.481       .  S
C534        C535   1.409       .  A
C535        C536   1.403       .  A
C535        C540   1.507       .  S
C536        C537   1.407       .  A
C536        H541   1.083       .  S
C537        C538   1.421       .  A
C538        C542   1.508   1_556  S
C539        C544   1.407       .  A
C539        C548   1.399       .  A
C540        H556   1.110       .  S
C540        H557   1.110       .  S
C540        H558   1.111       .  S
C542        H553   1.110       .  S
C542        H554   1.111   1_554  S
C542        H555   1.110       .  S
C544        C545   1.402       .  A
C544        C549   1.507       .  S
C545        C546   1.410       .  A
C545        H550   1.083       .  S
C546        C547   1.423       .  A
C547        C548   1.405       .  A
C547        C551   1.508       .  S
C548        H552   1.084       .  S
C549        H559   1.111       .  S
C549        H560   1.110       .  S
C549        H561   1.111       .  S
C551        H562   1.110       .  S
C551        H563   1.110       .  S
C551        H564   1.111       .  S
