geometry optimzed in LAMMPS
_audit_creation_date              2020-12-01 
_audit_creation_method            'lammps2cif' 
_symmetry_space_group_name_H-M    'P1' 
_symmetry_Int_Tables_number       1 
_symmetry_cell_setting            triclinic 
loop_ 
_symmetry_equiv_pos_as_xyz 
  x,y,z 
_cell_length_a                    61.25848011 
_cell_length_b                    60.9381555334545 
_cell_length_c                    61.38218386599227 
_cell_angle_alpha                 89.77719386799895 
_cell_angle_beta                  90.03075350441893 
_cell_angle_gamma                 89.98483876177266 
loop_ 
_atom_site_label 
_atom_site_type_symbol 
_atom_site_fract_x 
_atom_site_fract_y 
_atom_site_fract_z 
_atom_site_charge 
O1          O  0.49650894  0.12443510  0.12092723    -0.56800
C2          C  0.55783024  0.10616497  0.14721098     0.75800
O3          O  0.53334450  0.17346355  0.16059088    -0.58000
C4          C  0.49105326  0.14390374  0.11606614     0.75800
C5          C  0.49628231  0.12412697  0.18979609     0.78200
Cd6        Cd  0.52166695  0.13555005  0.15096472     1.37500
O7          O  0.54237295  0.10538289  0.13348862    -0.56800
O8          O  0.49968973  0.11061065  0.17459603    -0.55600
C9          C  0.54766537  0.17485624  0.14568119     0.78100
O10         O  0.50489250  0.14287301  0.18731290    -0.58000
O11         O  0.55509140  0.11864646  0.16342543    -0.56500
O12         O  0.49963949  0.15892045  0.12723412    -0.56400
O13         O  0.55062642  0.15778605  0.13442028    -0.55600
O14         O  0.70516108  0.09765576  0.07387145    -0.56800
C15         C  0.64312432  0.07882676  0.12045896     0.75800
O16         O  0.65307368  0.08610492  0.06958643    -0.58000
C17         C  0.71400191  0.10828666  0.08906442     0.75800
C18         C  0.70518939  0.03420065  0.10841488     0.78200
Cd19       Cd  0.68187694  0.07364381  0.09487132     1.37500
O20         O  0.65860389  0.09261745  0.12145155    -0.56800
O21         O  0.70328195  0.05071635  0.12065776    -0.55600
C22         C  0.66198484  0.07879682  0.05251180     0.78100
O23         O  0.69566263  0.03559914  0.09014179    -0.58000
O24         O  0.64645120  0.06197664  0.10892136    -0.56500
O25         O  0.70780144  0.10341023  0.10818523    -0.56400
O26         O  0.67899397  0.06719932  0.05521811    -0.55600
O27         O  0.87779794  0.62011935  0.80668269    -0.56800
C28         C  0.86396254  0.59556308  0.75287056     0.75800
O29         O  0.93311768  0.58060258  0.76800777    -0.58000
C30         C  0.88989433  0.61900118  0.82339200     0.75800
C31         C  0.88773622  0.54754828  0.80051264     0.78200
Cd32       Cd  0.89743210  0.59160522  0.78561756     1.37500
O33         O  0.88156796  0.60627937  0.75142372    -0.56800
O34         O  0.89394590  0.56231815  0.81357383    -0.55600
C35         C  0.93841712  0.60003214  0.76277759     0.78100
O36         O  0.88910802  0.55231199  0.78048103    -0.58000
O37         O  0.86098368  0.58534464  0.77055530    -0.56500
O38         O  0.90626596  0.60639406  0.82190961    -0.56400
O39         O  0.92581082  0.61491948  0.76960267    -0.55600
O40         O  0.86188286  0.63860652  0.92288875    -0.56800
C41         C  0.82172036  0.62182597  0.97419690     0.75800
O42         O  0.82579004  0.69461041  0.95657777    -0.58000
C43         C  0.86051074  0.65129758  0.90651918     0.75800
C44         C  0.79153817  0.65056443  0.91905488     0.78200
Cd45       Cd  0.83120054  0.65641036  0.94307019     1.37500
O46         O  0.84065571  0.62390606  0.96611457    -0.56800
O47         O  0.80882930  0.63983680  0.91549649    -0.55600
C48         C  0.84315046  0.69507741  0.96776225     0.78100
O49         O  0.79276895  0.66572396  0.93311935    -0.58000
O50         O  0.80778964  0.63583738  0.96817317    -0.56500
O51         O  0.84745129  0.66731928  0.90828433    -0.56400
O52         O  0.85499034  0.67809193  0.96690358    -0.55600
O53         O  0.05091768  0.60813884  0.64386762    -0.56800
C54         C  0.00071487  0.64651187  0.62521366     0.75800
O55         O  0.01371506  0.64309622  0.69800419    -0.58000
C56         C  0.06724541  0.60937680  0.65654592     0.75800
C57         C  0.05480789  0.67754552  0.65538052     0.78200
Cd58       Cd  0.03024229  0.63754963  0.66112560     1.37500
O59         O  0.00649461  0.66031833  0.63933857    -0.56800
O60         O  0.03859707  0.67669602  0.66825027    -0.55600
C61         C  0.00374211  0.62489813  0.69867653     0.78100
O62         O  0.06073254  0.65957960  0.64708757    -0.58000
O63         O  0.00816707  0.62725133  0.62765458    -0.56500
O64         O  0.06527683  0.62194627  0.67283062    -0.56400
O65         O  0.00688731  0.61230847  0.68265084    -0.55600
O66         O  0.21801325  0.59603071  0.61012675    -0.56800
C67         C  0.14853911  0.57813688  0.62225122     0.75800
O68         O  0.18755538  0.56869020  0.55621826    -0.58000
C69         C  0.21852559  0.60827646  0.59344101     0.75800
C70         C  0.21041991  0.53295161  0.60783650     0.78200
Cd71       Cd  0.18696012  0.57261367  0.59621174     1.37500
O72         O  0.16447313  0.59138737  0.62334931    -0.56800
O73         O  0.20348382  0.53635306  0.58867191    -0.55600
C74         C  0.16852468  0.57638850  0.55325149     0.78100
O75         O  0.20541539  0.54728660  0.62177648    -0.58000
O76         O  0.15110898  0.56153148  0.61022191    -0.56500
O77         O  0.20366127  0.60499890  0.57963219    -0.56400
O78         O  0.15740992  0.58000357  0.57020969    -0.55600
O79         O  0.33635785  0.42537497  0.61092040    -0.56800
C80         C  0.35075403  0.48099708  0.63605476     0.75800
O81         O  0.28127062  0.46318862  0.64708005    -0.58000
C82         C  0.32522487  0.40802167  0.61358697     0.75800
C83         C  0.32394976  0.43300166  0.68348296     0.78200
Cd84       Cd  0.31743147  0.44705310  0.63879996     1.37500
O85         O  0.35444431  0.46237857  0.64446512    -0.56800
O86         O  0.32256526  0.45304509  0.67814046    -0.55600
C87         C  0.27646026  0.46806163  0.62756241     0.78100
O88         O  0.31961388  0.41938054  0.66862468    -0.58000
O89         O  0.33254764  0.48303874  0.62656911    -0.56500
O90         O  0.30963741  0.40921105  0.62702402    -0.56400
O91         O  0.28976571  0.46157255  0.61324018    -0.55600
O92         O  0.37537731  0.26439215  0.59957764    -0.56800
C93         C  0.35825320  0.32791447  0.57620776     0.75800
O94         O  0.42421860  0.30350714  0.56117688    -0.58000
C95         C  0.39470040  0.25744082  0.60228417     0.75800
C96         C  0.37437689  0.26684409  0.52997499     0.78200
Cd97       Cd  0.38630354  0.29088018  0.56936941     1.37500
O98         O  0.35654925  0.31049403  0.58750507    -0.56800
O99         O  0.36070485  0.27195270  0.54453825    -0.55600
C100        C  0.42499796  0.31666207  0.57718777     0.78100
O101        O  0.39358898  0.27397536  0.53282434    -0.58000
O102        O  0.37119056  0.32712867  0.56012251    -0.56500
O103        O  0.40895999  0.26576596  0.58995921    -0.56400
O104        O  0.40769079  0.31864981  0.58815237    -0.55600
O105        O  0.36349067  0.14393064  0.42254577    -0.56800
C106        C  0.32562912  0.13290179  0.47684221     0.75800
O107        O  0.32867607  0.20192471  0.45619808    -0.58000
C108        C  0.36293854  0.15529854  0.40517265     0.75800
C109        C  0.29557375  0.15383549  0.41736497     0.78200
Cd110      Cd  0.33448479  0.16377357  0.44186090     1.37500
O111        O  0.34472793  0.13405975  0.46895430    -0.56800
O112        O  0.31279860  0.14244934  0.41707299    -0.55600
C113        C  0.34734411  0.20338268  0.46502659     0.78100
O114        O  0.29619490  0.17130153  0.42861890    -0.58000
O115        O  0.31178963  0.14601955  0.46888661    -0.56500
O116        O  0.35088351  0.17221921  0.40566069    -0.56400
O117        O  0.36011461  0.18740691  0.46176972    -0.55600
O118        O  0.36650521  0.09870650  0.26419352    -0.56800
C119        C  0.39408904  0.11629237  0.32526964     0.75800
O120        O  0.40941550  0.05015441  0.29586828    -0.58000
C121        C  0.36405578  0.07949732  0.25671081     0.75800
C122        C  0.43573542  0.10355237  0.25995029     0.78200
Cd123      Cd  0.39914194  0.08913564  0.28701782     1.37500
O124        O  0.38214126  0.11891369  0.30855714    -0.56800
O125        O  0.41971793  0.11596824  0.26399454    -0.55600
C126        C  0.39471567  0.04855073  0.31039654     0.78100
O127        O  0.43563071  0.08513154  0.26961846    -0.58000
O128        O  0.40951538  0.10255665  0.32352315    -0.56500
O129        O  0.37748246  0.06530119  0.26335745    -0.56400
O130        O  0.38395506  0.06575877  0.31443158    -0.55600
O131        O  0.86722242  0.74961989  0.08892986    -0.56800
C132        C  0.84676804  0.82135887  0.07846450     0.75800
O133        O  0.91620590  0.78162178  0.07610310    -0.58000
C134        C  0.87670338  0.75411773  0.10667225     0.75800
C135        C  0.86729964  0.76087491  0.03090188     0.78200
Cd136      Cd  0.87621133  0.78477396  0.07079084     1.37500
O137        O  0.84596686  0.80408036  0.08997754    -0.56800
O138        O  0.85236432  0.76836059  0.04299581    -0.55600
C139        C  0.92007162  0.80195605  0.07476834     0.78100
O140        O  0.88660381  0.76569877  0.03641635    -0.58000
O141        O  0.86008640  0.82099891  0.06269626    -0.56500
O142        O  0.88369422  0.77352908  0.10853456    -0.56400
O143        O  0.90413709  0.81392910  0.06911537    -0.55600
O144        O  0.83432824  0.96621282  0.12897336    -0.56800
C145        C  0.81223438  0.90267037  0.11126136     0.75800
O146        O  0.79907086  0.93318040  0.18048220    -0.58000
C147        C  0.84131085  0.96985724  0.14805321     0.75800
C148        C  0.76640851  0.96459395  0.12886308     0.78200
Cd149      Cd  0.80534180  0.93930975  0.14043381     1.37500
O150        O  0.82454422  0.91940820  0.11074508    -0.56800
O151        O  0.78057001  0.95934620  0.11488436    -0.55600
C152        C  0.80972522  0.91532127  0.18081123     0.78100
O153        O  0.76940592  0.95700047  0.14785352    -0.58000
O154        O  0.79594657  0.90374526  0.12395128    -0.56500
O155        O  0.83215589  0.95910751  0.16302536    -0.56400
O156        O  0.81541854  0.90789662  0.16246091    -0.55600
O157        O  0.12942896  0.13493845  0.50686819    -0.56800
C158        C  0.10862818  0.15816625  0.56821859     0.75800
O159        O  0.17696658  0.17193356  0.55255276    -0.58000
C160        C  0.14872180  0.13015699  0.50113739     0.75800
C161        C  0.13326660  0.20391341  0.51000296     0.78200
Cd162      Cd  0.14100122  0.16363105  0.53428715     1.37500
O163        O  0.10823423  0.14701306  0.55079440    -0.56800
O164        O  0.11815889  0.19167647  0.51704702    -0.55600
C165        C  0.17653744  0.15409322  0.56332963     0.78100
O166        O  0.15248217  0.19834604  0.51528046    -0.58000
O167        O  0.12276983  0.17332157  0.56899298    -0.56500
O168        O  0.16367715  0.14080649  0.51050002    -0.56400
O169        O  0.15981278  0.14223390  0.56085215    -0.55600
O170        O  0.08747117  0.10671685  0.71647447    -0.56800
C171        C  0.07044169  0.12112521  0.64548738     0.75800
O172        O  0.06683640  0.05361009  0.68762414    -0.58000
C173        C  0.10311130  0.09362147  0.71303602     0.75800
C174        C  0.02518239  0.10527922  0.70920232     0.78200
Cd175      Cd  0.06495114  0.09417247  0.68411886     1.37500
O176        O  0.08143905  0.12410265  0.66272832    -0.56800
O177        O  0.03888803  0.11949865  0.70303515    -0.55600
C178        C  0.07151309  0.04985356  0.66783981     0.78100
O179        O  0.02896171  0.08590883  0.70268671    -0.58000
O180        O  0.05557197  0.10674023  0.64658804    -0.56500
O181        O  0.10177218  0.08273165  0.69567876    -0.56400
O182        O  0.06989556  0.06612230  0.65507500    -0.55600
O183        O  0.60579320  0.74722112  0.88947496    -0.56800
C184        C  0.62595110  0.82232573  0.89995723     0.75800
O185        O  0.55856337  0.77873780  0.90120453    -0.58000
C186        C  0.59890848  0.75189945  0.87059983     0.75800
C187        C  0.60857732  0.76138519  0.94659268     0.78200
Cd188      Cd  0.59874691  0.78373615  0.90570510     1.37500
O189        O  0.62908804  0.80514737  0.88877241    -0.56800
O190        O  0.58951836  0.76770932  0.94157747    -0.55600
C191        C  0.55397827  0.79894385  0.90006199     0.78100
O192        O  0.62354650  0.76686177  0.93346462    -0.58000
O193        O  0.61137962  0.82092916  0.91449730    -0.56500
O194        O  0.59465728  0.77193557  0.86719421    -0.56400
O195        O  0.56963905  0.81191444  0.90376539    -0.55600
O196        O  0.62862825  0.96582154  0.84704548    -0.56800
C197        C  0.65685124  0.90635810  0.86998112     0.75800
O198        O  0.67159623  0.92810892  0.80306924    -0.58000
C199        C  0.62758486  0.97344287  0.82780601     0.75800
C200        C  0.69768549  0.97004866  0.85284722     0.78200
Cd201      Cd  0.66133144  0.94262835  0.83990020     1.37500
O202        O  0.64397796  0.92265921  0.87075871    -0.56800
O203        O  0.68139688  0.96635802  0.86497143    -0.55600
C204        C  0.65468889  0.91603036  0.80224410     0.78100
O205        O  0.69784538  0.96023317  0.83466761    -0.58000
O206        O  0.67289384  0.90812615  0.85703882    -0.56500
O207        O  0.64218866  0.96709181  0.81479151    -0.56400
O208        O  0.64275282  0.91569027  0.81902520    -0.55600
O209        O  0.60064385  0.59844078  0.21603396    -0.56800
C210        C  0.57268920  0.61782062  0.15697244     0.75800
O211        O  0.56210108  0.54842776  0.18345442    -0.58000
C212        C  0.60390823  0.57920771  0.22330871     0.75800
C213        C  0.52985520  0.59975865  0.21888404     0.78200
Cd214      Cd  0.56849761  0.58793164  0.19335083     1.37500
O215        O  0.58470707  0.61949204  0.17371032    -0.56800
O216        O  0.54631249  0.61216703  0.21722220    -0.55600
C217        C  0.57760299  0.54827768  0.16969766     0.78100
O218        O  0.53084462  0.58196188  0.20828362    -0.58000
O219        O  0.55763341  0.60357097  0.15799220    -0.56500
O220        O  0.59057421  0.56471412  0.21725455    -0.56400
O221        O  0.58658093  0.56657326  0.16589200    -0.55600
O222        O  0.62052676  0.62635539  0.01323025    -0.56800
C223        C  0.60374006  0.65094561  0.07500757     0.75800
O224        O  0.67177246  0.66229451  0.05118346    -0.58000
C225        C  0.63945953  0.62203202  0.00611421     0.75800
C226        C  0.62359883  0.69506889  0.01308466     0.78200
Cd227      Cd  0.63327833  0.65554511  0.03858824     1.37500
O228        O  0.60198760  0.63901163  0.05824725    -0.56800
O229        O  0.61023314  0.67941492  0.01525520    -0.55600
C230        C  0.67283664  0.64427775  0.06165558     0.78100
O231        O  0.64135483  0.69306318  0.02354927    -0.58000
O232        O  0.61773696  0.66623192  0.07392663    -0.56500
O233        O  0.65492157  0.63329854  0.01375025    -0.56400
O234        O  0.65549285  0.63305112  0.06236209    -0.55600
O235        O  0.41797674  0.60487507  0.34407569    -0.56800
C236        C  0.47090684  0.63393580  0.35861215     0.75800
O237        O  0.45667412  0.63929576  0.28681637    -0.58000
C238        C  0.40150248  0.60560923  0.33159316     0.75800
C239        C  0.42261391  0.67603416  0.32779524     0.78200
Cd240      Cd  0.43952209  0.63194254  0.32317613     1.37500
O241        O  0.47209304  0.61944517  0.34394288    -0.56800
O242        O  0.40995186  0.65968627  0.32667516    -0.55600
C243        C  0.46332967  0.61990283  0.28339514     0.78100
O244        O  0.44250706  0.67228070  0.32347292    -0.58000
O245        O  0.45409315  0.64584414  0.35808863    -0.56500
O246        O  0.40358762  0.61689357  0.31435519    -0.56400
O247        O  0.45772156  0.60585053  0.29752106    -0.55600
O248        O  0.24077894  0.57919545  0.38156052    -0.56800
C249        C  0.31720536  0.57669030  0.36264964     0.75800
O250        O  0.27287372  0.57738998  0.42706414    -0.58000
C251        C  0.24388135  0.59948695  0.38431620     0.75800
C252        C  0.26012205  0.52585246  0.37511514     0.78200
Cd253      Cd  0.27863004  0.56774100  0.38817166     1.37500
O254        O  0.29978436  0.58743085  0.35920387    -0.56800
O255        O  0.26766085  0.53990800  0.36191320    -0.55600
C256        C  0.29277191  0.57684581  0.43248796     0.78100
O257        O  0.26269902  0.53018273  0.39515254    -0.58000
O258        O  0.31594926  0.56137011  0.37656374    -0.56500
O259        O  0.26355732  0.60546487  0.38645183    -0.56400
O260        O  0.30564606  0.56923021  0.41832122    -0.55600
O261        O  0.12879908  0.46565871  0.33717123    -0.56800
C262        C  0.15102131  0.40401864  0.35463838     0.75800
O263        O  0.16589033  0.43351911  0.28716325    -0.58000
C264        C  0.12458195  0.47230841  0.31805028     0.75800
C265        C  0.19779060  0.46368942  0.34123475     0.78200
Cd266      Cd  0.15894060  0.44044486  0.32623416     1.37500
O267        O  0.13803461  0.42024658  0.35425527    -0.56800
O268        O  0.18167269  0.45947846  0.35335782    -0.55600
C269        C  0.15470480  0.41599308  0.28650391     0.78100
O270        O  0.19651948  0.45655970  0.32191812    -0.58000
O271        O  0.16812995  0.40563339  0.34313901    -0.56500
O272        O  0.13596669  0.46404228  0.30308303    -0.56400
O273        O  0.14796953  0.40865114  0.30455407    -0.55600
O274        O  0.10488163  0.25835333  0.37436228    -0.56800
C275        C  0.12285342  0.32183007  0.39149253     0.75800
O276        O  0.05632488  0.29554161  0.41021072    -0.58000
C277        C  0.08542455  0.25327834  0.36955839     0.75800
C278        C  0.10766574  0.26486668  0.44259488     0.78200
Cd279      Cd  0.09457239  0.28620410  0.40202089     1.37500
O280        O  0.12265307  0.30466401  0.37990551    -0.56800
O281        O  0.11963986  0.26560464  0.42583895    -0.55600
C282        C  0.05529151  0.31097954  0.39627587     0.78100
O283        O  0.08946628  0.27460369  0.44100988    -0.58000
O284        O  0.11205189  0.32110982  0.40907727    -0.56500
O285        O  0.07060828  0.26316288  0.37984268    -0.56400
O286        O  0.07287333  0.31591840  0.38671261    -0.55600
O287        O  0.80291535  0.09457909  0.86311654    -0.56800
C288        C  0.75065789  0.10895244  0.90114927     0.75800
O289        O  0.76562239  0.03928928  0.90045711    -0.58000
C290        C  0.81895428  0.08143202  0.86274456     0.75800
C291        C  0.80885563  0.07997576  0.93208318     0.78200
Cd292      Cd  0.78335415  0.07558341  0.89322541     1.37500
O293        O  0.75907334  0.09771948  0.91626122    -0.56800
O294        O  0.79583670  0.06389131  0.93023906    -0.55600
C295        C  0.75839713  0.03695184  0.88128204     0.78100
O296        O  0.81058368  0.09249449  0.91569629    -0.58000
O297        O  0.75775268  0.10524604  0.88214710    -0.56500
O298        O  0.81765922  0.06499746  0.87540426    -0.56400
O299        O  0.76340414  0.05193153  0.86789599    -0.55600
O300        O  0.96625091  0.12420611  0.84568987    -0.56800
C301        C  0.90086835  0.10803084  0.82474123     0.75800
O302        O  0.92400025  0.17463485  0.81021370    -0.58000
C303        C  0.97310214  0.14359847  0.84874454     0.75800
C304        C  0.96077495  0.12464332  0.77653872     0.78200
Cd305      Cd  0.93822660  0.13601423  0.81736277     1.37500
O306        O  0.91819051  0.10565687  0.83588073    -0.56800
O307        O  0.95580610  0.11037250  0.79071520    -0.55600
C308        C  0.91257387  0.17495874  0.82751276     0.78100
O309        O  0.95413315  0.14394418  0.78047984    -0.58000
O310        O  0.90196611  0.12133866  0.80885014    -0.56500
O311        O  0.96411150  0.15834453  0.83738799    -0.56400
O312        O  0.91283946  0.15758281  0.83881447    -0.55600
O313        O  0.12205796  0.17243735  0.88100502    -0.56800
C314        C  0.09163451  0.22262221  0.86743652     0.75800
O315        O  0.05206849  0.19446680  0.89753667    -0.58000
C316        C  0.12117124  0.15447364  0.89139967     0.75800
C317        C  0.10323759  0.21371907  0.94237432     0.78200
Cd318      Cd  0.09239044  0.19069818  0.90195887     1.37500
O319        O  0.08403988  0.20352962  0.86502293    -0.56800
O320        O  0.11743999  0.20822857  0.92850133    -0.55600
C321        C  0.04805383  0.17410932  0.89676527     0.78100
O322        O  0.08402575  0.20705836  0.93850492    -0.58000
O323        O  0.10147508  0.22627476  0.88515513    -0.56500
O324        O  0.10835787  0.15405144  0.90759208    -0.56400
O325        O  0.06399150  0.16160209  0.90113877    -0.55600
O326        O  0.14418234  0.05771637  0.85321742    -0.56800
C327        C  0.13022209  0.00667436  0.81841847     0.75800
O328        O  0.16909766  0.04661674  0.78383634    -0.58000
C329        C  0.15566336  0.07502494  0.85322576     0.75800
C330        C  0.20324709  0.01396424  0.83692448     0.78200
Cd331      Cd  0.16429289  0.03898149  0.82391171     1.37500
O332        O  0.13443474  0.01412149  0.83716408    -0.56800
O333        O  0.18834023  0.01985644  0.84984233    -0.55600
C334        C  0.15624796  0.06296195  0.78372209     0.78100
O335        O  0.20134617  0.02096819  0.81754845    -0.58000
O336        O  0.14164075  0.01416254  0.80301931    -0.56500
O337        O  0.17226510  0.07494402  0.84081835    -0.56400
O338        O  0.14955306  0.06920760  0.80214239    -0.55600
O339        O  0.58904368  0.87689834  0.73097450    -0.56800
C340        C  0.58313436  0.85987470  0.65950204     0.75800
O341        O  0.53941675  0.89835635  0.71623567    -0.58000
C342        C  0.60732377  0.88618387  0.72850666     0.75800
C343        C  0.57927647  0.93293658  0.67831541     0.78200
Cd344      Cd  0.57362509  0.88871918  0.69564708     1.37500
O345        O  0.59511236  0.86010077  0.67632761    -0.56800
O346        O  0.57290862  0.91751743  0.66611983    -0.55600
C347        C  0.53304621  0.87874195  0.71879529     0.78100
O348        O  0.58044820  0.92832331  0.69839032    -0.58000
O349        O  0.56625875  0.87186761  0.66020306    -0.56500
O350        O  0.61067213  0.89478495  0.71003619    -0.56400
O351        O  0.54429603  0.86436433  0.70911860    -0.55600
O352        O  0.62561159  0.83596047  0.50527810    -0.56800
C353        C  0.61133064  0.82355412  0.57755951     0.75800
O354        O  0.64566462  0.78121153  0.51972930    -0.58000
C355        C  0.63721787  0.85279196  0.50848393     0.75800
C356        C  0.68081315  0.82304749  0.55631880     0.78200
Cd357      Cd  0.63726365  0.81639197  0.53918075     1.37500
O358        O  0.60843558  0.83506146  0.56053314    -0.56800
O359        O  0.66490027  0.81887704  0.56875576    -0.55600
C360        C  0.62601269  0.77653739  0.51514976     0.78100
O361        O  0.67727428  0.82049774  0.53612992    -0.58000
O362        O  0.62442882  0.80757573  0.57591378    -0.56500
O363        O  0.64678298  0.85358463  0.52666832    -0.56400
O364        O  0.61178571  0.78916932  0.52317384    -0.55600
O365        O  0.42357441  0.86722925  0.83834552    -0.56800
C366        C  0.47833049  0.82885458  0.85323843     0.75800
O367        O  0.43071764  0.79915656  0.81295311    -0.58000
C368        C  0.40635880  0.86467746  0.82710592     0.75800
C369        C  0.46872274  0.85028218  0.78260763     0.78200
Cd370      Cd  0.44434660  0.83703904  0.82132296     1.37500
O371        O  0.46987541  0.84781589  0.85186506    -0.56800
O372        O  0.46481741  0.86294537  0.79841883    -0.55600
C373        C  0.42014162  0.79784633  0.83074317     0.78100
O374        O  0.46023330  0.83133259  0.78388671    -0.58000
O375        O  0.47133199  0.81476270  0.83992864    -0.56500
O376        O  0.40753704  0.85083691  0.81179851    -0.56400
O377        O  0.42073717  0.81440952  0.84305157    -0.55600
O378        O  0.30923097  0.89003544  0.86001052    -0.56800
C379        C  0.25625903  0.87691251  0.89883412     0.75800
O380        O  0.29594759  0.92243974  0.92528411    -0.58000
C381        C  0.32626541  0.90187845  0.86072219     0.75800
C382        C  0.26416126  0.94859660  0.87014491     0.78200
Cd383      Cd  0.28828355  0.91069095  0.88738006     1.37500
O384        O  0.26460765  0.87746607  0.87993859    -0.56800
O385        O  0.26714550  0.93128753  0.85923706    -0.55600
C386        C  0.31113978  0.90856338  0.92824323     0.78100
O387        O  0.27311473  0.94893625  0.88874293    -0.58000
O388        O  0.26253570  0.89174293  0.91165338    -0.56500
O389        O  0.32502040  0.91894185  0.87239618    -0.56400
O390        O  0.31675492  0.89742454  0.91186550    -0.55600
O391        O  0.61576409  0.67297356  0.39015714    -0.56800
C392        C  0.57637480  0.72676130  0.37634278     0.75800
O393        O  0.54852240  0.67907920  0.41640427    -0.58000
C394        C  0.61520817  0.65622983  0.40254648     0.75800
C395        C  0.60140474  0.71551271  0.44688247     0.78200
Cd396      Cd  0.58624235  0.69253702  0.40807715     1.37500
O397        O  0.59490886  0.71747648  0.37614350    -0.56800
O398        O  0.61301603  0.71356734  0.42997617    -0.55600
C399        C  0.54786996  0.66590393  0.40039761     0.78100
O400        O  0.58286721  0.70623317  0.44619623    -0.58000
O401        O  0.56335883  0.72041921  0.39103274    -0.56500
O402        O  0.60246164  0.65724571  0.41874687    -0.56400
O403        O  0.56498996  0.66469963  0.38899900    -0.55600
O404        O  0.63660630  0.55918394  0.37040667    -0.56800
C405        C  0.61724726  0.50775153  0.34131769     0.75800
O406        O  0.65526359  0.53400732  0.30205102    -0.58000
C407        C  0.64892760  0.57576141  0.36823849     0.75800
C408        C  0.69350998  0.51286410  0.35551281     0.78200
Cd409      Cd  0.65473531  0.53720840  0.34217330     1.37500
O410        O  0.61717827  0.52619916  0.33188093    -0.56800
O411        O  0.67910982  0.51919412  0.36881059    -0.55600
C412        C  0.65265040  0.55431774  0.29824524     0.78100
O413        O  0.69064613  0.51882424  0.33590381    -0.58000
O414        O  0.63394622  0.50358695  0.35270136    -0.56500
O415        O  0.66485977  0.57374210  0.35531944    -0.56400
O416        O  0.65374950  0.56678802  0.31460178    -0.55600
O417        O  0.07784423  0.35391975  0.16575643    -0.56800
C418        C  0.10142006  0.39072732  0.21550972     0.75800
O419        O  0.05782140  0.42467369  0.17921363    -0.58000
C420        C  0.06588835  0.35721391  0.14919724     0.75800
C421        C  0.02615519  0.37434055  0.21315473     0.78200
Cd422      Cd  0.06435088  0.38529507  0.18657523     1.37500
O423        O  0.09623256  0.37179134  0.20880199    -0.56800
O424        O  0.04104739  0.36058553  0.20915417    -0.55600
C425        C  0.07255953  0.42632457  0.16473360     0.78100
O426        O  0.02838108  0.39300466  0.20426679    -0.58000
O427        O  0.08934965  0.40628310  0.20933091    -0.56500
O428        O  0.05200860  0.37255917  0.15061782    -0.56400
O429        O  0.08164942  0.40864222  0.15895778    -0.55600
O430        O  0.10273969  0.33254254  0.05617098    -0.56800
C431        C  0.14218699  0.35162596  0.01009105     0.75800
O432        O  0.17167681  0.30515842  0.04885716    -0.58000
C433        C  0.10083881  0.31952096  0.07222985     0.75800
C434        C  0.12165732  0.27618157  0.01145228     0.78200
Cd435      Cd  0.13305153  0.31392600  0.03853344     1.37500
O436        O  0.12284357  0.34597966  0.01471319    -0.56800
O437        O  0.10754270  0.29008513  0.01723376    -0.55600
C438        C  0.17127729  0.31659916  0.06607511     0.78100
O439        O  0.14066251  0.27904900  0.01902672    -0.58000
O440        O  0.15697371  0.33994378  0.01847933    -0.56500
O441        O  0.11303817  0.30270477  0.07202286    -0.56400
O442        O  0.15290217  0.32443703  0.07126462    -0.55600
O443        O  0.92127861  0.36824814  0.34491844    -0.56800
C444        C  0.97560168  0.33742032  0.35529819     0.75800
O445        O  0.94208600  0.30134951  0.31690152    -0.58000
C446        C  0.90499078  0.36933131  0.33221595     0.75800
C447        C  0.96388109  0.35466538  0.28168372     0.78200
Cd448      Cd  0.94208443  0.34180912  0.32212418     1.37500
O449        O  0.97379348  0.35463829  0.34384602    -0.56800
O450        O  0.96022725  0.36810604  0.29686532    -0.55600
C451        C  0.92348264  0.29847921  0.32549276     0.78100
O452        O  0.95625801  0.33554589  0.28456429    -0.58000
O453        O  0.96109261  0.32306937  0.35243912    -0.56500
O454        O  0.90672537  0.35897219  0.31444879    -0.56400
O455        O  0.91271391  0.31566934  0.32969486    -0.55600
O456        O  0.80457569  0.38961960  0.35920966    -0.56800
C457        C  0.74958719  0.37331863  0.39399443     0.75800
O458        O  0.79233080  0.41587312  0.42720537    -0.58000
C459        C  0.82149485  0.40124587  0.36226742     0.75800
C460        C  0.75876606  0.44725204  0.37837567     0.78200
Cd461      Cd  0.78303702  0.40696633  0.38878272     1.37500
O462        O  0.75426940  0.38015887  0.37503567    -0.56800
O463        O  0.76724241  0.43521791  0.36392863    -0.55600
C464        C  0.80579423  0.40015353  0.42943613     0.78100
O465        O  0.76268829  0.44156078  0.39785233    -0.58000
O466        O  0.76079204  0.38126313  0.40925371    -0.56500
O467        O  0.81967353  0.41668367  0.37591754    -0.56400
O468        O  0.80976249  0.38897425  0.41259791    -0.55600
O469        O  0.30169167  0.09026849  0.62336633    -0.56800
C470        C  0.24719217  0.10470776  0.59733263     0.75800
O471        O  0.27573466  0.07846022  0.55451258    -0.58000
C472        C  0.31833465  0.07802273  0.62168012     0.75800
C473        C  0.26028382  0.03014063  0.60424145     0.78200
Cd474      Cd  0.28079201  0.07170655  0.59405752     1.37500
O475        O  0.24345109  0.08457873  0.60055055    -0.56800
O476        O  0.26689765  0.03410129  0.58504474    -0.55600
C477        C  0.29571524  0.08152931  0.55034340     0.78100
O478        O  0.26469546  0.04456265  0.61833958    -0.58000
O479        O  0.26699774  0.10992410  0.59460718    -0.56500
O480        O  0.31662446  0.06199569  0.60872323    -0.56400
O481        O  0.30881326  0.07721842  0.56568096    -0.55600
O482        O  0.41863825  0.10824397  0.63799080    -0.56800
C483        C  0.47252829  0.13728892  0.62292828     0.75800
O484        O  0.44499373  0.17778941  0.65192952    -0.58000
C485        C  0.40204353  0.10979410  0.65022958     0.75800
C486        C  0.46215612  0.12604347  0.69725722     0.78200
Cd487      Cd  0.43979801  0.13776298  0.65691150     1.37500
O488        O  0.47554604  0.12895466  0.64158367    -0.56800
O489        O  0.45685356  0.11236584  0.68275569    -0.55600
C490        C  0.42491563  0.18252526  0.65101466     0.78100
O491        O  0.45565798  0.14555302  0.69407236    -0.58000
O492        O  0.45331400  0.14373527  0.61891101    -0.56500
O493        O  0.40368546  0.12310239  0.66591531    -0.56400
O494        O  0.41189873  0.16704892  0.65551683    -0.55600
O495        O  0.58558967  0.11935807  0.80514666    -0.56800
C496        C  0.60571140  0.09158338  0.75427312     0.75800
O497        O  0.57254249  0.05010383  0.77979896    -0.58000
C498        C  0.57335471  0.11645998  0.82156247     0.75800
C499        C  0.52848356  0.09989936  0.75955610     0.78200
Cd500      Cd  0.56856065  0.09003121  0.78334581     1.37500
O501        O  0.58908960  0.10356722  0.75130851    -0.56800
O502        O  0.54088289  0.11460398  0.76709941    -0.55600
C503        C  0.57502794  0.04639633  0.79998805     0.78100
O504        O  0.53397554  0.08031023  0.76386681    -0.58000
O505        O  0.60594298  0.08058752  0.77170388    -0.56500
O506        O  0.55809602  0.10263907  0.81946487    -0.56400
O507        O  0.57130496  0.06236647  0.81253613    -0.55600
O508        O  0.60325096  0.13620671  0.92120172    -0.56800
C509        C  0.63871360  0.12447973  0.97411482     0.75800
O510        O  0.66878313  0.16697934  0.93738672    -0.58000
C511        C  0.60246645  0.14882852  0.90476351     0.75800
C512        C  0.61562448  0.19650213  0.96711704     0.78200
Cd513      Cd  0.62980217  0.15830579  0.94194727     1.37500
O514        O  0.61944766  0.12767869  0.96724893    -0.56800
O515        O  0.60506640  0.17869124  0.96631083    -0.55600
C516        C  0.67156393  0.15437637  0.92122290     0.78100
O517        O  0.63238281  0.19744690  0.95505975    -0.58000
O518        O  0.65328909  0.13643005  0.96577538    -0.56500
O519        O  0.61262031  0.16687518  0.90651307    -0.56400
O520        O  0.65459310  0.14586024  0.91316042    -0.55600
O521        O  0.11874969  0.80469359  0.59005217    -0.56800
C522        C  0.08147313  0.75336549  0.60757157     0.75800
O523        O  0.04973718  0.79537364  0.56320130    -0.58000
C524        C  0.11735199  0.82195161  0.57848814     0.75800
C525        C  0.09855690  0.75942228  0.53335286     0.78200
Cd526      Cd  0.08820099  0.78498300  0.57260031     1.37500
O527        O  0.10062723  0.75853876  0.60167172    -0.56800
O528        O  0.11335579  0.76785868  0.54498492    -0.55600
C529        C  0.04798730  0.80860583  0.57903949     0.78100
O530        O  0.07920290  0.76388182  0.53902168    -0.58000
O531        O  0.06617279  0.76271719  0.59748361    -0.56500
O532        O  0.10353940  0.82138933  0.56310149    -0.56400
O533        O  0.06510258  0.81203033  0.59001505    -0.55600
O534        O  0.14201734  0.91950414  0.60888053    -0.56800
C535        C  0.12284506  0.97318288  0.64696977     0.75800
O536        O  0.16546948  0.92763173  0.67706656    -0.58000
C537        C  0.15331183  0.90232641  0.61221231     0.75800
C538        C  0.19641535  0.96499576  0.62899345     0.78200
Cd539      Cd  0.15708397  0.94054935  0.63967959     1.37500
O540        O  0.12632329  0.96549218  0.62811062    -0.56800
O541        O  0.18174187  0.96075697  0.61512341    -0.55600
C542        C  0.14924780  0.91462267  0.67752721     0.78100
O543        O  0.19348083  0.95711185  0.64789050    -0.58000
O544        O  0.13500184  0.96585701  0.66192371    -0.56500
O545        O  0.16800211  0.90378451  0.62664943    -0.56400
O546        O  0.13781050  0.91361160  0.66045512    -0.55600
O547        O  0.08481705  0.62422298  0.30687791    -0.56800
C548        C  0.10509084  0.59694426  0.25289545     0.75800
O549        O  0.06766811  0.55426924  0.28005274    -0.58000
C550        C  0.07293868  0.61982880  0.32322940     0.75800
C551        C  0.02879395  0.60317218  0.26067143     0.78200
Cd552      Cd  0.06950012  0.59453392  0.28384542     1.37500
O553        O  0.10600405  0.58461555  0.26940560    -0.56800
O554        O  0.04067709  0.61829732  0.26826138    -0.55600
C555        C  0.07573575  0.55012453  0.29864286     0.78100
O556        O  0.03499729  0.58378709  0.26482324    -0.58000
O557        O  0.08903913  0.60998029  0.25215514    -0.56500
O558        O  0.05848982  0.60524485  0.32050927    -0.56400
O559        O  0.07878039  0.56640675  0.31097426    -0.55600
O560        O  0.10266405  0.63459840  0.42394885    -0.56800
C561        C  0.14310538  0.62196957  0.47572643     0.75800
O562        O  0.15305123  0.63454426  0.41691135    -0.58000
C563        C  0.10232013  0.64760593  0.40777186     0.75800
C564        C  0.11850408  0.69236259  0.46891947     0.78200
Cd565      Cd  0.13215179  0.65433649  0.44331664     1.37500
O566        O  0.12393839  0.62321601  0.46799785    -0.56800
O567        O  0.10731386  0.67496459  0.46776504    -0.55600
C568        C  0.17015076  0.64611863  0.41683970     0.78100
O569        O  0.13573430  0.69269318  0.45742209    -0.58000
O570        O  0.15679440  0.63569868  0.46856524    -0.56500
O571        O  0.11393201  0.66474188  0.40943807    -0.56400
O572        O  0.16976158  0.66320270  0.42868595    -0.55600
O573        O  0.61165992  0.30616606  0.08987283    -0.56800
C574        C  0.57822068  0.25471394  0.10742962     0.75800
O575        O  0.54155403  0.28903136  0.06635358    -0.58000
C576        C  0.60935401  0.32375850  0.07895903     0.75800
C577        C  0.59066231  0.26092708  0.03235985     0.78200
Cd578      Cd  0.58154902  0.28615476  0.07178030     1.37500
O579        O  0.59502204  0.25576216  0.09547815    -0.56800
O580        O  0.57149138  0.26354900  0.03949226    -0.55600
C581        C  0.54017990  0.30785691  0.07494951     0.78100
O582        O  0.60538574  0.27148331  0.04227395    -0.58000
O583        O  0.56421344  0.26956503  0.10438754    -0.56500
O584        O  0.59563829  0.32320270  0.06351991    -0.56400
O585        O  0.55802223  0.31721874  0.07935947    -0.55600
O586        O  0.63877018  0.41960775  0.11378212    -0.56800
C587        C  0.62726402  0.47303015  0.14267190     0.75800
O588        O  0.65378830  0.40827565  0.16969010    -0.58000
C589        C  0.64934994  0.40171242  0.11422949     0.75800
C590        C  0.70068287  0.45791815  0.12938682     0.78200
Cd591      Cd  0.65962850  0.43793740  0.14243768     1.37500
O592        O  0.62227469  0.45345235  0.14738399    -0.56800
O593        O  0.68589308  0.45290591  0.11592986    -0.55600
C594        C  0.65314767  0.42074883  0.18605019     0.78100
O595        O  0.69737217  0.45191291  0.14893017    -0.58000
O596        O  0.64665374  0.47599394  0.13636402    -0.56500
O597        O  0.66592884  0.40125943  0.12655285    -0.56400
O598        O  0.65855295  0.44052211  0.18259027    -0.55600
O599        O  0.91982198  0.61326238  0.13889004    -0.56800
C600        C  0.97147134  0.65331069  0.12889478     0.75800
O601        O  0.92629708  0.68114013  0.16872722    -0.58000
C602        C  0.90314426  0.61181824  0.15103937     0.75800
C603        C  0.96163666  0.62847063  0.19912604     0.78200
Cd604      Cd  0.93800797  0.64245818  0.16024768     1.37500
O605        O  0.96342260  0.63416193  0.12930789    -0.56800
O606        O  0.96088333  0.61750512  0.18169327    -0.55600
C607        C  0.91264060  0.68172271  0.15316812     0.78100
O608        O  0.95029459  0.64587792  0.19933882    -0.58000
O609        O  0.96445075  0.66646595  0.14309378    -0.56500
O610        O  0.90358905  0.62318333  0.16831270    -0.56400
O611        O  0.91023683  0.66417961  0.14255462    -0.55600
O612        O  0.80471228  0.58450653  0.12239416    -0.56800
C613        C  0.74934685  0.59685720  0.09063981     0.75800
O614        O  0.78120227  0.56258980  0.05283004    -0.58000
C615        C  0.82249019  0.57417161  0.11963668     0.75800
C616        C  0.76560879  0.52288520  0.10637851     0.78200
Cd617      Cd  0.78472961  0.56454077  0.09296284     1.37500
O618        O  0.74715428  0.57818017  0.09934806    -0.56800
O619        O  0.77035952  0.53769537  0.11995111    -0.55600
C620        C  0.80034898  0.56920122  0.04863498     0.78100
O621        O  0.77150634  0.52649312  0.08688940    -0.58000
O622        O  0.76855767  0.60164098  0.08477647    -0.56500
O623        O  0.82200825  0.55862935  0.10603068    -0.56400
O624        O  0.81306468  0.57081551  0.06474398    -0.55600
O625        O  0.76035075  0.88238116  0.59831271    -0.56800
C626        C  0.82385728  0.90377304  0.61360572     0.75800
O627        O  0.79025167  0.91972122  0.54638961    -0.58000
C628        C  0.75451828  0.87695938  0.57927250     0.75800
C629        C  0.76277121  0.95254264  0.60000162     0.78200
Cd630      Cd  0.78590961  0.91262136  0.58618619     1.37500
O631        O  0.80652170  0.89243443  0.61465887    -0.56800
O632        O  0.76536445  0.93585697  0.61201559    -0.55600
C633        C  0.80744035  0.90819911  0.54485225     0.78100
O634        O  0.77163677  0.95144907  0.58140685    -0.58000
O635        O  0.82310468  0.92032933  0.60106599    -0.56500
O636        O  0.76290976  0.88798203  0.56401523    -0.56400
O637        O  0.81525215  0.90089123  0.56251560    -0.55600
O638        O  0.97318753  0.85195350  0.63979384    -0.56800
C639        C  0.90258880  0.86629588  0.65096387     0.75800
O640        O  0.94126282  0.79777404  0.65855606    -0.58000
C641        C  0.97218509  0.83747155  0.62512309     0.75800
C642        C  0.96430974  0.84895012  0.70034915     0.78200
Cd643      Cd  0.94032660  0.83860737  0.66045492     1.37500
O644        O  0.91981096  0.86692278  0.63951157    -0.56800
O645        O  0.95688100  0.86337599  0.68748208    -0.55600
C646        C  0.92077932  0.79566365  0.65660986     0.78100
O647        O  0.95920344  0.82934924  0.69585669    -0.58000
O648        O  0.90345910  0.85423576  0.66778097    -0.56500
O649        O  0.95568189  0.82509135  0.62591744    -0.56400
O650        O  0.90962541  0.81288058  0.65943765    -0.55600
O651        O  0.59520413  0.21962926  0.60642533    -0.56800
C652        C  0.61797803  0.15920090  0.57888005     0.75800
O653        O  0.55172861  0.17946790  0.56425395    -0.58000
C654        C  0.57613896  0.22778492  0.60687297     0.75800
C655        C  0.60084600  0.22268810  0.53748694     0.78200
Cd656      Cd  0.58789217  0.19545673  0.57446377     1.37500
O657        O  0.61892378  0.17590256  0.59115527    -0.56800
O658        O  0.61297427  0.22005554  0.55397581    -0.55600
C659        C  0.54994412  0.16880939  0.58203338     0.78100
O660        O  0.58314917  0.21185360  0.53757010    -0.58000
O661        O  0.60435043  0.16020060  0.56338271    -0.56500
O662        O  0.56308772  0.22117768  0.59238749    -0.56400
O663        O  0.56576008  0.17020427  0.59518896    -0.55600
O664        O  0.64430822  0.06235476  0.61025639    -0.56800
C665        C  0.62715879  0.00959879  0.65099023     0.75800
O666        O  0.69672354  0.02368426  0.64846924    -0.58000
C667        C  0.65566312  0.07964900  0.61251839     0.75800
C668        C  0.65370082  0.06830828  0.67912935     0.78200
Cd669      Cd  0.66073846  0.04226853  0.64109297     1.37500
O670        O  0.62946039  0.01672626  0.63167090    -0.56800
O671        O  0.64138043  0.06920379  0.66263633    -0.55600
C672        C  0.69969369  0.01718556  0.62911212     0.78100
O673        O  0.67057602  0.05624976  0.67764261    -0.58000
O674        O  0.64015660  0.01741874  0.66486886    -0.56500
O675        O  0.67081188  0.07871638  0.62654883    -0.56400
O676        O  0.68535319  0.02309574  0.61545684    -0.55600
O677        O  0.13672121  0.55971842  0.10810852    -0.56800
C678        C  0.11779416  0.50609425  0.14378861     0.75800
O679        O  0.18392970  0.51605447  0.15030631    -0.58000
C680        C  0.14903023  0.57625162  0.11085015     0.75800
C681        C  0.14419113  0.56556471  0.17561134     0.78200
Cd682      Cd  0.15190648  0.53848125  0.13864995     1.37500
O683        O  0.12418059  0.51200702  0.12501347    -0.56800
O684        O  0.13117477  0.56428702  0.15970947    -0.55600
C685        C  0.18971944  0.51063156  0.13126593     0.78100
O686        O  0.16157148  0.55419874  0.17443652    -0.58000
O687        O  0.12641139  0.51583911  0.15971646    -0.56500
O688        O  0.16455457  0.57389896  0.12429045    -0.56400
O689        O  0.17913302  0.51944831  0.11582408    -0.55600
O690        O  0.09748278  0.73486758  0.08741394    -0.56800
C691        C  0.11515060  0.65905838  0.08034197     0.75800
O692        O  0.04986298  0.70485829  0.07881101    -0.58000
C693        C  0.09057002  0.73197379  0.10662325     0.75800
C694        C  0.10243261  0.71861500  0.03221099     0.78200
Cd695      Cd  0.08949161  0.69832116  0.07325007     1.37500
O696        O  0.11768148  0.67601846  0.09202271    -0.56800
O697        O  0.11617614  0.71354223  0.04675819    -0.55600
C698        C  0.04466396  0.68479155  0.07933627     0.78100
O699        O  0.08283606  0.71313073  0.03608922    -0.58000
O700        O  0.10160574  0.66081771  0.06489778    -0.56500
O701        O  0.08539738  0.71246694  0.11153136    -0.56400
O702        O  0.05956197  0.67144512  0.07415300    -0.55600
O703        O  0.64640607  0.36082008  0.46057558    -0.56800
C704        C  0.60164998  0.33391138  0.40847175     0.75800
O705        O  0.65453825  0.33461055  0.41507777    -0.58000
C706        C  0.63264123  0.36510567  0.47519274     0.75800
C707        C  0.61937928  0.28905334  0.47162622     0.78200
Cd708      Cd  0.62954716  0.32804679  0.44575387     1.37500
O709        O  0.60107910  0.34676823  0.42465271    -0.56800
O710        O  0.60464409  0.30173126  0.46456310    -0.55600
C711        C  0.67214029  0.33085360  0.42521449     0.78100
O712        O  0.63862448  0.29358774  0.46561237    -0.58000
O713        O  0.61389526  0.31726148  0.41036088    -0.56500
O714        O  0.61580277  0.35310492  0.47540553    -0.56400
O715        O  0.67004835  0.32362152  0.44450507    -0.55600
O716        O  0.57875220  0.36447582  0.31109671    -0.56800
C717        C  0.59823784  0.39987936  0.25871729     0.75800
O718        O  0.52585835  0.39843130  0.27213668    -0.58000
C719        C  0.56710970  0.36749835  0.32791430     0.75800
C720        C  0.56815352  0.43486386  0.31121761     0.78200
Cd721      Cd  0.56230516  0.39371881  0.28912732     1.37500
O722        O  0.59463398  0.38121040  0.26713059    -0.56800
O723        O  0.57765703  0.41720599  0.31645297    -0.55600
C724        C  0.52404912  0.37909833  0.26482576     0.78100
O725        O  0.55414242  0.43360239  0.29600276    -0.58000
O726        O  0.58509947  0.41489984  0.26391495    -0.56500
O727        O  0.55195427  0.38154848  0.32614141    -0.56400
O728        O  0.53938835  0.36610937  0.26969301    -0.55600
O729        O  0.41455623  0.37465066  0.14213839    -0.56800
C730        C  0.46872894  0.33859901  0.12530126     0.75800
O731        O  0.45252615  0.33783606  0.19591793    -0.58000
C732        C  0.39891614  0.37282582  0.15557203     0.75800
C733        C  0.41253164  0.30513181  0.15134375     0.78200
Cd734      Cd  0.43658715  0.34514039  0.15912960     1.37500
O735        O  0.46162568  0.35776612  0.12899117    -0.56800
O736        O  0.40932593  0.32255119  0.14056636    -0.55600
C737        C  0.46082693  0.35672693  0.19828140     0.78100
O738        O  0.42611212  0.30635128  0.16694718    -0.58000
O739        O  0.46141224  0.32349845  0.13735785    -0.56500
O740        O  0.40197865  0.36000149  0.17157800    -0.56400
O741        O  0.45739941  0.37019561  0.18293120    -0.55600
O742        O  0.26087116  0.36428981  0.08862767    -0.56800
C743        C  0.31288296  0.39692412  0.12736608     0.75800
O744        O  0.26948352  0.40234460  0.06063508    -0.58000
C745        C  0.24382225  0.36353396  0.10012894     0.75800
C746        C  0.25021430  0.44041306  0.11040142     0.78200
Cd747      Cd  0.27400001  0.40032498  0.10066607     1.37500
O748        O  0.29743475  0.38323221  0.12929178    -0.56800
O749        O  0.25267213  0.42490268  0.12393476    -0.55600
C750        C  0.28870673  0.39600543  0.05633413     0.78100
O751        O  0.25948240  0.43784314  0.09215025    -0.58000
O752        O  0.30951961  0.41274646  0.11440027    -0.56500
O753        O  0.24170224  0.37884770  0.11382069    -0.56400
O754        O  0.30146595  0.39383473  0.07241363    -0.55600
O755        O  0.08963340  0.85805179  0.80517120    -0.56800
C756        C  0.10708012  0.88469270  0.75387116     0.75800
O757        O  0.03511093  0.89527743  0.76708958    -0.58000
C758        C  0.07798708  0.86033197  0.82204200     0.75800
C759        C  0.07779284  0.93212138  0.79634448     0.78200
Cd760      Cd  0.07140013  0.88711466  0.78407520     1.37500
O761        O  0.10969353  0.89324931  0.77237537    -0.56800
O762        O  0.07434302  0.92679588  0.77673871    -0.55600
C763        C  0.03089462  0.87557437  0.76209297     0.78100
O764        O  0.07526420  0.91706150  0.81038073    -0.58000
O765        O  0.08889267  0.87545055  0.75060561    -0.56500
O766        O  0.06251227  0.87406314  0.82068621    -0.56400
O767        O  0.04469844  0.86149293  0.76840947    -0.55600
O768        O  0.12541453  0.83871406  0.97691384    -0.56800
C769        C  0.10859405  0.82919087  0.90490270     0.75800
O770        O  0.17611472  0.82638081  0.94601897    -0.58000
C771        C  0.13544844  0.85658680  0.97389463     0.75800
C772        C  0.12446472  0.78150720  0.96488314     0.78200
Cd773      Cd  0.13624945  0.82178334  0.94200734     1.37500
O774        O  0.10775632  0.84187124  0.92118715    -0.56800
O775        O  0.11053625  0.79563523  0.95903442    -0.55600
C776        C  0.18073881  0.82725667  0.92592391     0.78100
O777        O  0.14393937  0.78519565  0.95887770    -0.58000
O778        O  0.12094397  0.81263821  0.90668238    -0.56500
O779        O  0.14401430  0.85914966  0.95533614    -0.56400
O780        O  0.16523047  0.82273196  0.91308427    -0.55600
O781        O  0.16263579  0.89285760  0.11995480    -0.56800
C782        C  0.21845383  0.87471188  0.08623608     0.75800
O783        O  0.17726212  0.91734016  0.05174561    -0.58000
C784        C  0.14696078  0.90617379  0.11708232     0.75800
C785        C  0.20995167  0.94797315  0.10064203     0.78200
Cd786      Cd  0.18562232  0.90865993  0.09046078     1.37500
O787        O  0.21271265  0.88132798  0.10492694    -0.56800
O788        O  0.20482151  0.93385249  0.11488456    -0.55600
C789        C  0.16392688  0.90149199  0.04990670     0.78100
O790        O  0.20305829  0.94444132  0.08152412    -0.58000
O791        O  0.20857455  0.88313401  0.07027177    -0.56500
O792        O  0.15009626  0.92141690  0.10337167    -0.56400
O793        O  0.16012622  0.89037045  0.06693950    -0.55600
O794        O  0.04696070  0.87650959  0.13194280    -0.56800
C795        C  0.99409159  0.83602300  0.12100870     0.75800
O796        O  0.05637798  0.82629824  0.13293974    -0.58000
C797        C  0.06260249  0.87771224  0.14545998     0.75800
C798        C  0.00514661  0.85863138  0.19175942     0.78200
Cd799      Cd  0.02814711  0.84685798  0.15204034     1.37500
O800        O  0.00384957  0.82204762  0.13270820    -0.56800
O801        O  0.00874748  0.87241708  0.17673803    -0.55600
C802        C  0.05717854  0.80985568  0.14551537     0.78100
O803        O  0.01295258  0.83959556  0.18883590    -0.58000
O804        O  0.99987866  0.85582939  0.12351095    -0.56500
O805        O  0.06071192  0.86643382  0.16273227    -0.56400
O806        O  0.04492204  0.81063965  0.16220016    -0.55600
O807        O  0.85775184  0.67219096  0.58617338    -0.56800
C808        C  0.88846501  0.72345929  0.60658918     0.75800
O809        O  0.92670296  0.69883547  0.57081318    -0.58000
C810        C  0.85990276  0.65548524  0.57410035     0.75800
C811        C  0.87631600  0.72082993  0.53029872     0.78200
Cd812      Cd  0.88668226  0.69465207  0.56883501     1.37500
O813        O  0.89978258  0.70627042  0.60477259    -0.56800
O814        O  0.86198704  0.71431807  0.54364296    -0.55600
C815        C  0.93072162  0.67852393  0.57261205     0.78100
O816        O  0.89554099  0.71411602  0.53391032    -0.58000
O817        O  0.87415828  0.72633495  0.59197213    -0.56500
O818        O  0.87344471  0.65737057  0.55864446    -0.56400
O819        O  0.91473085  0.66575228  0.56951587    -0.55600
O820        O  0.84770182  0.51304232  0.63072366    -0.56800
C821        C  0.82319606  0.57529061  0.60816660     0.75800
O822        O  0.77903672  0.52384341  0.64445723    -0.58000
C823        C  0.84887470  0.50608416  0.65020054     0.75800
C824        C  0.82225798  0.56462157  0.67651801     0.78200
Cd825      Cd  0.81643869  0.53888855  0.63815895     1.37500
O826        O  0.83500383  0.55817257  0.60769458    -0.56800
O827        O  0.83516533  0.56514654  0.66046059    -0.55600
C828        C  0.77779762  0.51383745  0.62645712     0.78100
O829        O  0.80532343  0.55277455  0.67454547    -0.58000
O830        O  0.80703699  0.57460527  0.62102172    -0.56500
O831        O  0.83514364  0.51402009  0.66327785    -0.56400
O832        O  0.79383919  0.51627875  0.61369546    -0.55600
O833        O  0.87111206  0.84212671  0.41757988    -0.56800
C834        C  0.83701224  0.86051852  0.47086350     0.75800
O835        O  0.81820246  0.84049938  0.41120741    -0.58000
C836        C  0.86984574  0.82839850  0.40216581     0.75800
C837        C  0.85220787  0.78654806  0.46585728     0.78200
Cd838      Cd  0.84205145  0.82516507  0.43968756     1.37500
O839        O  0.82154794  0.85223077  0.46015406    -0.56800
O840        O  0.86589659  0.80148612  0.46162725    -0.55600
C841        C  0.80099653  0.83109592  0.41775774     0.78100
O842        O  0.83359242  0.78879424  0.45714134    -0.58000
O843        O  0.85585805  0.85305713  0.46676606    -0.56500
O844        O  0.85726237  0.81217953  0.40518044    -0.56400
O845        O  0.80320702  0.81726335  0.43313542    -0.55600
O846        O  0.88223247  0.85868560  0.30281871    -0.56800
C847        C  0.86312406  0.88821979  0.25202276     0.75800
O848        O  0.89937827  0.91465113  0.31166725    -0.58000
C849        C  0.89609262  0.85894201  0.31814384     0.75800
C850        C  0.94007639  0.87776330  0.25720469     0.78200
Cd851      Cd  0.90046948  0.88807881  0.28133353     1.37500
O852        O  0.86337130  0.89898041  0.26955931    -0.56800
O853        O  0.92656509  0.86325354  0.26306853    -0.55600
C854        C  0.89753872  0.93173898  0.30003485     0.78100
O855        O  0.93572579  0.89716394  0.26316566    -0.58000
O856        O  0.87956902  0.87613922  0.24872445    -0.56500
O857        O  0.91230008  0.87153792  0.31555822    -0.56400
O858        O  0.89935211  0.92889930  0.27967445    -0.55600
O859        O  0.66498233  0.39253133  0.61972282    -0.56800
C860        C  0.71729068  0.37507217  0.58804111     0.75800
O861        O  0.68273108  0.41891963  0.55178005    -0.58000
C862        C  0.64880439  0.40549065  0.61895762     0.75800
C863        C  0.71168176  0.45049494  0.60193510     0.78200
Cd864      Cd  0.68646123  0.41131053  0.59127967     1.37500
O865        O  0.71445239  0.38540947  0.60564388    -0.56800
O866        O  0.70544812  0.43676405  0.61610870    -0.55600
C867        C  0.66473256  0.40878243  0.55003354     0.78100
O868        O  0.70518447  0.44691007  0.58270648    -0.58000
O869        O  0.70505761  0.38059454  0.57243656    -0.56500
O870        O  0.65085385  0.42215411  0.60673675    -0.56400
O871        O  0.65642292  0.40162153  0.56751364    -0.55600
O872        O  0.55140345  0.37436198  0.64339248    -0.56800
C873        C  0.50032408  0.34305618  0.62520265     0.75800
O874        O  0.56086466  0.31915864  0.65721328    -0.58000
C875        C  0.56846715  0.37254473  0.65498433     0.75800
C876        C  0.50784432  0.35688880  0.70224187     0.78200
Cd877      Cd  0.53070849  0.34524089  0.66195320     1.37500
O878        O  0.51746429  0.33166628  0.62611127    -0.56800
O879        O  0.51408966  0.37086520  0.68830611    -0.55600
C880        C  0.54900885  0.30218501  0.65736962     0.78100
O881        O  0.51296236  0.33717470  0.69816553    -0.58000
O882        O  0.49803904  0.35687004  0.64038093    -0.56500
O883        O  0.56726572  0.35940998  0.67095091    -0.56400
O884        O  0.52923692  0.30493082  0.66289515    -0.55600
O885        O  0.34958307  0.17622713  0.09447321    -0.56800
C886        C  0.38328161  0.22815607  0.10642357     0.75800
O887        O  0.41507026  0.19418655  0.06644543    -0.58000
C888        C  0.34757466  0.16030678  0.08137916     0.75800
C889        C  0.36359112  0.22163736  0.03183472     0.78200
Cd890      Cd  0.37547021  0.19714804  0.07113998     1.37500
O891        O  0.36554813  0.22811298  0.09579231    -0.56800
O892        O  0.35004560  0.21683440  0.04664386    -0.55600
C893        C  0.41604490  0.17387547  0.07092251     0.78100
O894        O  0.38271843  0.21429254  0.03459341    -0.58000
O895        O  0.39646251  0.21298547  0.10179176    -0.56500
O896        O  0.35653229  0.16271658  0.06294274    -0.56400
O897        O  0.39800761  0.16398676  0.07259947    -0.55600
O898        O  0.33009058  0.05916963  0.10819062    -0.56800
C899        C  0.34969520  0.00634104  0.13516714     0.75800
O900        O  0.31287448  0.03391491  0.17704455    -0.58000
C901        C  0.31769754  0.07558282  0.11103527     0.75800
C902        C  0.27288930  0.01364911  0.12601023     0.78200
Cd903      Cd  0.31288849  0.03663759  0.13688201     1.37500
O904        O  0.35035323  0.02434777  0.14523488    -0.56800
O905        O  0.28568431  0.02156750  0.11186115    -0.55600
C906        C  0.31727782  0.05398045  0.18030551     0.78100
O907        O  0.27782587  0.01749766  0.14567545    -0.58000
O908        O  0.33249234  0.00291905  0.12432797    -0.56500
O909        O  0.30207470  0.07303612  0.12427335    -0.56400
O910        O  0.31727310  0.06618764  0.16364743    -0.55600
O911        O  0.35499388  0.34441160  0.92309036    -0.56800
C912        C  0.31680750  0.35520780  0.97684554     0.75800
O913        O  0.28807406  0.31492978  0.92887569    -0.58000
C914        C  0.35507639  0.33274716  0.90600294     0.75800
C915        C  0.33739641  0.28468756  0.96585929     0.78200
Cd916      Cd  0.32570019  0.32429510  0.94203425     1.37500
O917        O  0.33620902  0.35279557  0.97009304    -0.56800
O918        O  0.35095715  0.29968785  0.96139199    -0.55600
C919        C  0.28664376  0.33231067  0.91746280     0.78100
O920        O  0.31846921  0.28703703  0.95785381    -0.58000
O921        O  0.30254235  0.34377154  0.96737865    -0.56500
O922        O  0.34281664  0.31598363  0.90634697    -0.56400
O923        O  0.30342113  0.34434918  0.91672931    -0.55600
O924        O  0.38720938  0.36606520  0.81073448    -0.56800
C925        C  0.37446143  0.40759802  0.75863532     0.75800
O926        O  0.41611841  0.43340173  0.80669834    -0.58000
C927        C  0.39696696  0.36832545  0.82884863     0.75800
C928        C  0.44570290  0.38393865  0.76822118     0.78200
Cd929      Cd  0.40630452  0.39648878  0.79193929     1.37500
O930        O  0.37530373  0.38832310  0.76647792    -0.56800
O931        O  0.43042871  0.37057195  0.77237713    -0.55600
C932        C  0.39836426  0.43470736  0.81733689     0.78100
O933        O  0.44359243  0.40292821  0.77628142    -0.58000
O934        O  0.38852741  0.42087640  0.76574571    -0.56500
O935        O  0.41287413  0.38163220  0.82897373    -0.56400
O936        O  0.38572066  0.41838104  0.81647795    -0.55600
O937        O  0.88051515  0.11658633  0.17603366    -0.56800
C938        C  0.87029874  0.08884993  0.23048905     0.75800
O939        O  0.88797271  0.06321718  0.16484791    -0.58000
C940        C  0.89164380  0.11605485  0.15861909     0.75800
C941        C  0.94420944  0.09556227  0.21378570     0.78200
Cd942      Cd  0.90126559  0.08689571  0.19456004     1.37500
O943        O  0.86867482  0.07552213  0.21490166    -0.56800
O944        O  0.93321067  0.10992100  0.20368983    -0.55600
C945        C  0.89199171  0.04497723  0.17378155     0.78100
O946        O  0.93646070  0.07628928  0.21325911    -0.58000
O947        O  0.88559379  0.10267175  0.22892263    -0.56500
O948        O  0.90805597  0.10337700  0.15876792    -0.56400
O949        O  0.90246662  0.04587677  0.19160228    -0.55600
O950        O  0.86258374  0.14036821  0.06010162    -0.56800
C951        C  0.83627391  0.12358516  0.00824531     0.75800
O952        O  0.79219319  0.15971454  0.03871054    -0.58000
C953        C  0.86033926  0.15188780  0.07711393     0.75800
C954        C  0.84031831  0.19866248  0.01401297     0.78200
Cd955      Cd  0.83295537  0.15877944  0.03940073     1.37500
O956        O  0.85027757  0.13878482  0.00884548    -0.56800
O957        O  0.85486209  0.19064754  0.02634653    -0.55600
C958        C  0.78971403  0.15374555  0.05833352     0.78100
O959        O  0.82178756  0.18964449  0.01524989    -0.58000
O960        O  0.82224870  0.12363039  0.02330917    -0.56500
O961        O  0.84704531  0.16779421  0.07579577    -0.56400
O962        O  0.80703736  0.15206717  0.06939418    -0.55600
O963        O  0.16874316  0.09109172  0.35323828    -0.56800
C964        C  0.22273143  0.10627669  0.38308858     0.75800
O965        O  0.19536184  0.07430694  0.42309466    -0.58000
C966        C  0.15161663  0.07969066  0.35585614     0.75800
C967        C  0.21006411  0.03076765  0.36869350     0.78200
Cd968      Cd  0.18993086  0.07193134  0.38260114     1.37500
O969        O  0.20318283  0.10985698  0.38860917    -0.56800
O970        O  0.20650666  0.04669249  0.35592966    -0.55600
C971        C  0.17550456  0.07810729  0.42742349     0.78100
O972        O  0.20328332  0.03327818  0.38806997    -0.58000
O973        O  0.22652214  0.08756960  0.37511226    -0.56500
O974        O  0.15294374  0.06425076  0.36963304    -0.56400
O975        O  0.16238708  0.07594270  0.41166606    -0.55600
O976        O  0.05149191  0.10880497  0.33513115    -0.56800
C977        C  0.00095320  0.14704821  0.35130552     0.75800
O978        O  0.04137068  0.17757064  0.30874448    -0.58000
C979        C  0.06840748  0.10988038  0.32327026     0.75800
C980        C  0.00826894  0.12515232  0.27659451     0.78200
Cd981      Cd  0.03176758  0.13866591  0.31613511     1.37500
O982        O  0.00763182  0.12778458  0.34738916    -0.56800
O983        O  0.01092366  0.11306713  0.29317473    -0.55600
C984        C  0.05673499  0.17794873  0.32266039     0.78100
O985        O  0.01693802  0.14399913  0.27772017    -0.58000
O986        O  0.00782659  0.16185569  0.33863100    -0.56500
O987        O  0.06726967  0.12261867  0.30692571    -0.56400
O988        O  0.06146919  0.15990318  0.33165710    -0.55600
O989        O  0.82274225  0.42065204  0.87290031    -0.56800
C990        C  0.83536311  0.47541017  0.83265542     0.75800
O991        O  0.82945908  0.41661421  0.82092294    -0.58000
C992        C  0.81164287  0.40318839  0.87077007     0.75800
C993        C  0.76505758  0.46209490  0.85405272     0.78200
Cd994      Cd  0.80542236  0.43988211  0.84188218     1.37500
O995        O  0.81987979  0.46968145  0.82033560    -0.56800
O996        O  0.78037945  0.45904150  0.86757217    -0.55600
C997        C  0.81847519  0.41528144  0.80355371     0.78100
O998        O  0.76764420  0.45354092  0.83541047    -0.58000
O999        O  0.83658567  0.46552623  0.85086085    -0.56500
O1000       O  0.79640237  0.40378713  0.85677781    -0.56400
O1001       O  0.80000634  0.42483523  0.80367307    -0.55600
O1002       O  0.84380921  0.30359115  0.88814687    -0.56800
C1003       C  0.87536896  0.24851784  0.87267379     0.75800
O1004       O  0.91521807  0.28104047  0.90562337    -0.58000
C1005       C  0.84547598  0.32023120  0.90040448     0.75800
C1006       C  0.86377575  0.26137612  0.94628482     0.78200
Cd1007     Cd  0.87474212  0.28311688  0.90542692     1.37500
O1008       O  0.86924067  0.24518116  0.89202816    -0.56800
O1009       O  0.85012942  0.26529827  0.93128713    -0.55600
C1010       C  0.91865030  0.30034729  0.89872279     0.78100
O1011       O  0.88279632  0.26906063  0.94329418    -0.58000
O1012       O  0.87890925  0.26836188  0.86765692    -0.56500
O1013       O  0.85939491  0.31881057  0.91559710    -0.56400
O1014       O  0.90196934  0.31241000  0.89699417    -0.55600
O1015       O  0.66376688  0.59542108  0.85864315    -0.56800
C1016       C  0.71608566  0.60589621  0.88773930     0.75800
O1017       O  0.68395037  0.57308474  0.92621011    -0.58000
C1018       C  0.64667901  0.58373384  0.85800001     0.75800
C1019       C  0.70342000  0.53115240  0.87413472     0.78200
Cd1020     Cd  0.68255626  0.57240438  0.88604652     1.37500
O1021       O  0.69747376  0.60851209  0.89617977    -0.56800
O1022       O  0.69790186  0.54547712  0.86023380    -0.55600
C1023       C  0.66368085  0.57607159  0.92903857     0.78100
O1024       O  0.69786760  0.53514429  0.89361828    -0.58000
O1025       O  0.71867032  0.58845890  0.87696231    -0.56500
O1026       O  0.64718858  0.56608414  0.86892798    -0.56400
O1027       O  0.65190020  0.57457281  0.91221337    -0.55600
O1028       O  0.54814434  0.61301000  0.83477140    -0.56800
C1029       C  0.49656623  0.65282757  0.85110881     0.75800
O1030       O  0.54459772  0.68220886  0.80893837    -0.58000
C1031       C  0.56521516  0.61556823  0.82332957     0.75800
C1032       C  0.50518611  0.63288852  0.77867653     0.78200
Cd1033     Cd  0.52896982  0.64456436  0.81786198     1.37500
O1034       O  0.50290057  0.66696950  0.83741850    -0.56800
O1035       O  0.51008338  0.61882590  0.79306553    -0.55600
C1036       C  0.55674313  0.68222840  0.82573874     0.78100
O1037       O  0.51227630  0.65215546  0.78181909    -0.58000
O1038       O  0.50458136  0.63376702  0.84913344    -0.56500
O1039       O  0.56417498  0.62950924  0.80800001    -0.56400
O1040       O  0.55567164  0.66538495  0.83775780    -0.55600
O1041       O  0.36032619  0.80613396  0.38315183    -0.56800
C1042       C  0.39784019  0.75343660  0.37599669     0.75800
O1043       O  0.42613664  0.79395244  0.41622263    -0.58000
C1044       C  0.35793420  0.82267698  0.39541341     0.75800
C1045       C  0.37008720  0.76526181  0.44682573     0.78200
Cd1046     Cd  0.38666871  0.78710614  0.40766913     1.37500
O1047       O  0.41173570  0.76270440  0.38799941    -0.56800
O1048       O  0.35932941  0.76616923  0.42929022    -0.55600
C1049       C  0.42697997  0.81193371  0.40577602     0.78100
O1050       O  0.38820393  0.77527239  0.44667594    -0.58000
O1051       O  0.37831526  0.75991866  0.37826440    -0.56500
O1052       O  0.36760959  0.82182851  0.41365071    -0.56400
O1053       O  0.40902931  0.81892172  0.39831632    -0.55600
O1054       O  0.33116873  0.92190694  0.36647731    -0.56800
C1055       C  0.34836965  0.97369291  0.33968944     0.75800
O1056       O  0.31901060  0.91417594  0.30656820    -0.58000
C1057       C  0.32173480  0.90383121  0.36260526     0.75800
C1058       C  0.27165750  0.96258489  0.34592211     0.78200
Cd1059     Cd  0.31356031  0.94182275  0.33609997     1.37500
O1060       O  0.35146683  0.95454744  0.33257008    -0.56800
O1061       O  0.28342715  0.95405879  0.36060589    -0.55600
C1062       C  0.32257674  0.92806149  0.29161858     0.78100
O1063       O  0.27823843  0.95977329  0.32655840    -0.58000
O1064       O  0.32960067  0.97752398  0.34734605    -0.56500
O1065       O  0.30732630  0.90408626  0.34779062    -0.56400
O1066       O  0.31900226  0.94788832  0.29659264    -0.55600
O1067       O  0.37927890  0.62669020  0.67354416    -0.56800
C1068       C  0.36917295  0.58679185  0.72837983     0.75800
O1069       O  0.40931743  0.55982108  0.68038928    -0.58000
C1070       C  0.39180464  0.62709026  0.65706366     0.75800
C1071       C  0.43846332  0.61178220  0.71559892     0.78200
Cd1072     Cd  0.39924529  0.59761426  0.69325217     1.37500
O1073       O  0.36903819  0.60598605  0.72029530    -0.56800
O1074       O  0.42169692  0.62381127  0.71418343    -0.55600
C1075       C  0.39252118  0.55798970  0.66838718     0.78100
O1076       O  0.43751078  0.59356020  0.70574662    -0.58000
O1077       O  0.38300167  0.57371359  0.72044847    -0.56500
O1078       O  0.40866633  0.61511437  0.65822932    -0.56400
O1079       O  0.38006579  0.57452235  0.66748179    -0.55600
O1080       O  0.36196396  0.64845451  0.55930402    -0.56800
C1081       C  0.32401161  0.62999928  0.50368992     0.75800
O1082       O  0.30970624  0.64327982  0.56223389    -0.58000
C1083       C  0.35752304  0.65987353  0.57603045     0.75800
C1084       C  0.34534309  0.70292646  0.51359985     0.78200
Cd1085     Cd  0.33210393  0.66332236  0.53673302     1.37500
O1086       O  0.31051014  0.64441226  0.50963203    -0.56800
O1087       O  0.35893581  0.68808717  0.51855968    -0.55600
C1088       C  0.29244507  0.65446804  0.56011815     0.78100
O1089       O  0.32600144  0.70007138  0.52035968    -0.58000
O1090       O  0.34275733  0.63099555  0.51248779    -0.56500
O1091       O  0.34261138  0.67410695  0.57382134    -0.56400
O1092       O  0.29343353  0.67097156  0.54741223    -0.55600
O1093       O  0.35016895  0.52447840  0.83800946    -0.56800
C1094       C  0.32258899  0.57610275  0.87309603     0.75800
O1095       O  0.31897720  0.53350286  0.80679607    -0.58000
C1096       C  0.34926180  0.50667068  0.84849531     0.75800
C1097       C  0.27178603  0.51713654  0.85656885     0.78200
Cd1098     Cd  0.31367777  0.53802608  0.84653528     1.37500
O1099       O  0.33288838  0.55821110  0.87551386    -0.56800
O1100       O  0.28443217  0.52472276  0.87096838    -0.55600
C1101       C  0.32097970  0.55377745  0.80264636     0.78100
O1102       O  0.27793515  0.51999574  0.83706265    -0.58000
O1103       O  0.30707603  0.57580779  0.85947597    -0.56500
O1104       O  0.33235677  0.50392649  0.86003351    -0.56400
O1105       O  0.31662500  0.56665559  0.81818466    -0.55600
O1106       O  0.35538624  0.67370995  0.89726604    -0.56800
C1107       C  0.38445245  0.72568838  0.87792543     0.75800
O1108       O  0.35850830  0.71418166  0.93896186    -0.58000
C1109       C  0.35884683  0.65620395  0.90795931     0.75800
C1110       C  0.42822645  0.68172953  0.90833882     0.78200
Cd1111     Cd  0.38413960  0.69567937  0.91478367     1.37500
O1112       O  0.37285519  0.72940725  0.89454011    -0.56800
O1113       O  0.41345267  0.66836474  0.91401244    -0.55600
C1114       C  0.37194343  0.72066208  0.95318153     0.78100
O1115       O  0.42344102  0.70189354  0.90968720    -0.58000
O1116       O  0.39349728  0.70708675  0.87736218    -0.56500
O1117       O  0.37286180  0.65745576  0.92305067    -0.56400
O1118       O  0.39134967  0.71374992  0.95103115    -0.55600
O1119       O  0.00600291  0.31143897  0.84080713    -0.56800
C1120       C  0.06838570  0.36517247  0.83039003     0.75800
O1121       O  0.04239997  0.29902000  0.81071941    -0.58000
C1122       C  0.99782998  0.32507202  0.85388584     0.75800
C1123       C  0.00904236  0.35144780  0.78345574     0.78200
Cd1124     Cd  0.03157483  0.33648137  0.82223752     1.37500
O1125       O  0.05071577  0.36703448  0.84101556    -0.56800
O1126       O  0.01030015  0.36260845  0.80072406    -0.55600
C1127       C  0.05624492  0.29722181  0.82603213     0.78100
O1128       O  0.01915660  0.33332704  0.78359148    -0.58000
O1129       O  0.06835129  0.35132576  0.81508152    -0.56500
O1130       O  0.00548769  0.34437521  0.85281499    -0.56400
O1131       O  0.05867888  0.31363676  0.83833975    -0.55600
O1132       O  0.21514018  0.40045146  0.88222164    -0.56800
C1133       C  0.14439348  0.40678253  0.86727050     0.75800
O1134       O  0.18482785  0.41204184  0.93522412    -0.58000
C1135       C  0.21279170  0.38253219  0.89239594     0.75800
C1136       C  0.20284524  0.45827863  0.88425964     0.78200
Cd1137     Cd  0.18054906  0.41741355  0.89561315     1.37500
O1138       O  0.16205529  0.39599425  0.86776040    -0.56800
O1139       O  0.19359825  0.44604639  0.87048083    -0.55600
C1140       C  0.16473663  0.40977675  0.93952751     0.78100
O1141       O  0.20005737  0.45291809  0.90403757    -0.58000
O1142       O  0.14375296  0.42374139  0.87914967    -0.56500
O1143       O  0.19508990  0.38041452  0.90270427    -0.56400
O1144       O  0.15170949  0.41450302  0.92419196    -0.55600
O1145       O  0.51956373  0.83690437  0.36248960    -0.56800
C1146       C  0.57207683  0.87334039  0.33384701     0.75800
O1147       O  0.52722715  0.80807735  0.32612092    -0.58000
C1148       C  0.50162179  0.84706651  0.36243495     0.75800
C1149       C  0.51067885  0.86120907  0.28563960     0.78200
Cd1150     Cd  0.53254670  0.84853290  0.32623087     1.37500
O1151       O  0.55495481  0.87633857  0.34508541    -0.56800
O1152       O  0.51834494  0.87551661  0.29840567    -0.55600
C1153       C  0.54704572  0.80340175  0.32976356     0.78100
O1154       O  0.51430129  0.84143993  0.29096096    -0.58000
O1155       O  0.57036652  0.86000812  0.31819114    -0.56500
O1156       O  0.49881072  0.86023149  0.34667815    -0.56400
O1157       O  0.56029223  0.81929500  0.32879206    -0.55600
O1158       O  0.71781889  0.88660067  0.38057246    -0.56800
C1159       C  0.65316729  0.90730571  0.36799092     0.75800
O1160       O  0.68164392  0.91868544  0.43581042    -0.58000
C1161       C  0.72256076  0.87785127  0.39872154     0.75800
C1162       C  0.71558455  0.95244413  0.38835583     0.78200
Cd1163     Cd  0.69036631  0.91263635  0.39637393     1.37500
O1164       O  0.67002196  0.89528249  0.36646977    -0.56800
O1165       O  0.70541824  0.94257766  0.37337339    -0.55600
C1166       C  0.66690827  0.90404232  0.43607416     0.78100
O1167       O  0.71268027  0.94503820  0.40741393    -0.58000
O1168       O  0.65448699  0.92325920  0.38114586    -0.56500
O1169       O  0.71201880  0.88475252  0.41490650    -0.56400
O1170       O  0.66225262  0.89547907  0.41796394    -0.55600
O1171       O  0.91108606  0.21916000  0.38979750    -0.56800
C1172       C  0.86097033  0.15828886  0.40605510     0.75800
O1173       O  0.92908178  0.18968476  0.41727197    -0.58000
C1174       C  0.89626438  0.22564993  0.37704310     0.75800
C1175       C  0.87429375  0.21935550  0.45134203     0.78200
Cd1176     Cd  0.88908330  0.19507489  0.41277436     1.37500
O1177       O  0.86097045  0.17452249  0.39305773    -0.56800
O1178       O  0.86240284  0.21635780  0.43481380    -0.55600
C1179       C  0.92991524  0.17190805  0.40657770     0.78100
O1180       O  0.89303139  0.21054391  0.45054653    -0.58000
O1181       O  0.87286118  0.15998139  0.42288672    -0.56500
O1182       O  0.87727788  0.21834534  0.38083783    -0.56400
O1183       O  0.91176176  0.16345768  0.40160857    -0.55600
O1184       O  0.85256287  0.01251559  0.35655878    -0.56800
C1185       C  0.82796549  0.07524863  0.37669408     0.75800
O1186       O  0.81083440  0.05076994  0.31104851    -0.58000
C1187       C  0.85317643  0.00543634  0.33715505     0.75800
C1188       C  0.78176567  0.01530975  0.36252595     0.78200
Cd1189     Cd  0.82095240  0.03843104  0.34853414     1.37500
O1190       O  0.83985948  0.05826928  0.37831272    -0.56800
O1191       O  0.78222868  0.02538854  0.34443752    -0.55600
C1192       C  0.82743896  0.06311491  0.30908114     0.78100
O1193       O  0.79891617  0.01669839  0.37393447    -0.58000
O1194       O  0.81187604  0.07400033  0.36379585    -0.56500
O1195       O  0.83888499  0.01302874  0.32438039    -0.56400
O1196       O  0.83948675  0.06492342  0.32571305    -0.55600
O1197       O  0.88759371  0.37481389  0.73354100    -0.56800
C1198       C  0.89585646  0.35992562  0.66057825     0.75800
O1199       O  0.89666927  0.42670381  0.70049599    -0.58000
C1200       C  0.86979764  0.38510414  0.73121425     0.75800
C1201       C  0.94480753  0.37895613  0.72028909     0.78200
Cd1202     Cd  0.90375026  0.38724755  0.69814511     1.37500
O1203       O  0.88408587  0.35814924  0.67748630    -0.56800
O1204       O  0.93365300  0.36395869  0.71146503    -0.55600
C1205       C  0.89735298  0.43080725  0.68028323     0.78100
O1206       O  0.93788080  0.39833743  0.71749102    -0.58000
O1207       O  0.91201406  0.37276358  0.66198877    -0.56500
O1208       O  0.86701793  0.39419754  0.71287439    -0.56400
O1209       O  0.90373574  0.41524394  0.66832647    -0.55600
O1210       O  0.81307347  0.34489359  0.51658973    -0.56800
C1211       C  0.86360863  0.32918611  0.57785016     0.75800
O1212       O  0.81256951  0.34033597  0.56824357    -0.58000
C1213       C  0.82863639  0.35534501  0.50801730     0.75800
C1214       C  0.84864886  0.28275171  0.51715529     0.78200
Cd1215     Cd  0.83528545  0.32209269  0.54121824     1.37500
O1216       O  0.86418703  0.34159610  0.56123835    -0.56800
O1217       O  0.86166760  0.29809669  0.52185856    -0.55600
C1218       C  0.79533080  0.32944871  0.56502473     0.78100
O1219       O  0.82943649  0.28480043  0.52457733    -0.58000
O1220       O  0.85138405  0.31245012  0.57650866    -0.56500
O1221       O  0.84757795  0.35072676  0.51491571    -0.56400
O1222       O  0.79683194  0.31352881  0.55177828    -0.55600
O1223       O  0.35203797  0.85721282  0.01131329    -0.56800
C1224       C  0.36786570  0.83416046  0.07461004     0.75800
O1225       O  0.30003096  0.81868451  0.04695217    -0.58000
C1226       C  0.33371458  0.86605020  0.00749296     0.75800
C1227       C  0.34723541  0.79074776  0.01221508     0.78200
Cd1228     Cd  0.33801183  0.82979441  0.03821617     1.37500
O1229       O  0.36888527  0.84639562  0.05786905    -0.56800
O1230       O  0.36184356  0.80071923  0.02283835    -0.55600
C1231       C  0.29765385  0.83316887  0.06155521     0.78100
O1232       O  0.32809739  0.79823822  0.01420964    -0.58000
O1233       O  0.35383777  0.81889252  0.07395196    -0.56500
O1234       O  0.31793528  0.85890341  0.01858219    -0.56400
O1235       O  0.31431630  0.84445405  0.06617865    -0.55600
O1236       O  0.37971588  0.88852636  0.21005395    -0.56800
C1237       C  0.40798397  0.86766089  0.15231177     0.75800
O1238       O  0.41972901  0.93675552  0.17716521    -0.58000
C1239       C  0.37778584  0.90740483  0.21846859     0.75800
C1240       C  0.44914240  0.88374110  0.21670878     0.78200
Cd1241     Cd  0.41303176  0.89748021  0.18849758     1.37500
O1242       O  0.39619698  0.86649944  0.16927419    -0.56800
O1243       O  0.43136891  0.87335100  0.21512307    -0.55600
C1244       C  0.40468177  0.93617243  0.16287608     0.78100
O1245       O  0.45100940  0.90036902  0.20429072    -0.58000
O1246       O  0.42391145  0.88093102  0.15313146    -0.56500
O1247       O  0.39210691  0.92131383  0.21310216    -0.56400
O1248       O  0.39584477  0.91773128  0.15978041    -0.55600
C1249       C  0.38645524  0.83858679  0.13366733    -0.11300
C1250       C  0.40201695  0.85544320  0.13218252     0.05700
C1251       C  0.40885586  0.86232793  0.11122400    -0.06600
C1252       C  0.39855466  0.85394939  0.09260691    -0.07300
C1253       C  0.38153499  0.83857649  0.09421867    -0.01900
C1254       C  0.37635534  0.83000883  0.11503979     0.05000
N1255       N  0.35977913  0.81377525  0.11786667     0.67500
H1256       H  0.38122850  0.83270879  0.14952239     0.16400
H1257       H  0.40316768  0.86047626  0.07681024     0.16100
N1258       N  0.42490151  0.87911377  0.10844748     0.75200
O1259       O  0.36505039  0.79376052  0.11791611    -0.38300
O1260       O  0.34158641  0.81935478  0.12568957    -0.38200
O1261       O  0.44384717  0.87391903  0.10226710    -0.38900
O1262       O  0.41888934  0.89888336  0.10712619    -0.39000
C1263       C  0.89818978  0.35863480  0.62022983    -0.11300
C1264       C  0.89031814  0.34916381  0.63961660     0.05700
C1265       C  0.87562808  0.33139332  0.63818932    -0.06600
C1266       C  0.86845553  0.32417339  0.61775923    -0.07300
C1267       C  0.87508426  0.33470409  0.59844482    -0.01900
C1268       C  0.89053008  0.35186888  0.59982793     0.05000
N1269       N  0.89782493  0.36341311  0.58087049     0.67500
H1270       H  0.90941015  0.37238075  0.62087508     0.16400
H1271       H  0.85662783  0.31095389  0.61717288     0.16100
N1272       N  0.86721414  0.32091789  0.65726615     0.75200
O1273       O  0.88838940  0.38099295  0.57535419    -0.38300
O1274       O  0.91627020  0.35895833  0.57288974    -0.38200
O1275       O  0.84806891  0.32528679  0.66347152    -0.38900
O1276       O  0.87662680  0.30401327  0.66459275    -0.39000
C1277       C  0.88299521  0.24291600  0.48343368    -0.11300
C1278       C  0.86711392  0.23327831  0.47002253     0.05700
C1279       C  0.84490148  0.23845162  0.47389374    -0.06600
C1280       C  0.83921389  0.25346733  0.49028687    -0.07300
C1281       C  0.85522937  0.26421780  0.50268316    -0.01900
C1282       C  0.87735352  0.25842585  0.49934780     0.05000
N1283       N  0.89444099  0.26847782  0.51160596     0.67500
H1284       H  0.90011314  0.23919370  0.48089925     0.16400
H1285       H  0.82214344  0.25760691  0.49248728     0.16100
N1286       N  0.82787167  0.22913448  0.46097621     0.75200
O1287       O  0.90215093  0.25861921  0.52800483    -0.38300
O1288       O  0.90491653  0.28428114  0.50335799    -0.38200
O1289       O  0.81630940  0.21391183  0.46883534    -0.38900
O1290       O  0.82130704  0.23927338  0.44424525    -0.39000
C1291       C  0.85558018  0.11833508  0.41195017    -0.11300
C1292       C  0.84916180  0.13767481  0.40115685     0.05700
C1293       C  0.83355996  0.13626830  0.38429033    -0.06600
C1294       C  0.82570069  0.11575403  0.37786582    -0.07300
C1295       C  0.83348510  0.09627521  0.38743418    -0.01900
C1296       C  0.84818349  0.09774334  0.40509239     0.05000
N1297       N  0.85637331  0.07858594  0.41581293     0.67500
H1298       H  0.86751151  0.11899787  0.42500481     0.16400
H1299       H  0.81437025  0.11508509  0.36428586     0.16100
N1300       N  0.82623276  0.15532987  0.37278609     0.75200
O1301       O  0.87407216  0.07022679  0.40938121    -0.38300
O1302       O  0.84929249  0.07373719  0.43452186    -0.38200
O1303       O  0.83391613  0.15950368  0.35415123    -0.38900
O1304       O  0.80911011  0.16497907  0.37896612    -0.39000
C1305       C  0.72843649  0.98258703  0.36380932    -0.11300
C1306       C  0.73075504  0.97088883  0.38345780     0.05700
C1307       C  0.74881254  0.97565778  0.39696018    -0.06600
C1308       C  0.76450620  0.99090773  0.39015781    -0.07300
C1309       C  0.76287749  0.00176912  0.36997438    -0.01900
C1310       C  0.74411419  0.99800616  0.35705644     0.05000
N1311       N  0.74087679  0.00919469  0.33681736     0.67500
H1312       H  0.71457415  0.97937414  0.35329582     0.16400
H1313       H  0.77859100  0.99356300  0.40052683     0.16100
N1314       N  0.75251063  0.96395386  0.41683543     0.75200
O1315       O  0.74629499  0.99990261  0.31929903    -0.38300
O1316       O  0.72822673  0.02552979  0.33611761    -0.38200
O1317       O  0.76566813  0.94801456  0.41698366    -0.38900
O1318       O  0.74695765  0.97257540  0.43464711    -0.39000
C1319       C  0.48254219  0.89228577  0.23893356    -0.11300
C1320       C  0.46629072  0.87717694  0.23284099     0.05700
C1321       C  0.46598084  0.85645364  0.24337762    -0.06600
C1322       C  0.48124854  0.85151799  0.25965965    -0.07300
C1323       C  0.49686945  0.86687324  0.26640059    -0.01900
C1324       C  0.49761247  0.88743425  0.25562818     0.05000
N1325       N  0.51367971  0.90346529  0.26115767     0.67500
H1326       H  0.48323250  0.90825886  0.23110053     0.16400
H1327       H  0.48024605  0.83566626  0.26771402     0.16100
N1328       N  0.45007627  0.84018253  0.23809080     0.75200
O1329       O  0.53140338  0.90398771  0.25070256    -0.38300
O1330       O  0.50824090  0.91981532  0.27248157    -0.38200
O1331       O  0.45548081  0.82435731  0.22604570    -0.38900
O1332       O  0.43309199  0.83859437  0.24961757    -0.39000
C1333       C  0.59285628  0.90218630  0.35363167    -0.11300
C1334       C  0.59308706  0.88420162  0.33943616     0.05700
C1335       C  0.61349298  0.87589501  0.33246932    -0.06600
C1336       C  0.63289980  0.88475024  0.34080945    -0.07300
C1337       C  0.63262064  0.90178276  0.35618946    -0.01900
C1338       C  0.61224057  0.91101882  0.36198120     0.05000
N1339       N  0.61069586  0.92839189  0.37744990     0.67500
H1340       H  0.57742156  0.90899748  0.35901179     0.16400
H1341       H  0.64828268  0.87739202  0.33602151     0.16100
N1342       N  0.61489624  0.85735208  0.31834421     0.75200
O1343       O  0.60846092  0.94786843  0.37076426    -0.38300
O1344       O  0.60665120  0.92388946  0.39712171    -0.38200
O1345       O  0.62011543  0.86014318  0.29864470    -0.38900
O1346       O  0.61541241  0.83828274  0.32642474    -0.39000
C1347       C  0.98796286  0.38090677  0.76486830    -0.11300
C1348       C  0.99563935  0.35917896  0.76475919     0.05700
C1349       C  0.98855867  0.34503383  0.74800012    -0.06600
C1350       C  0.97295663  0.35232300  0.73291302    -0.07300
C1351       C  0.96411553  0.37358125  0.73399283    -0.01900
C1352       C  0.97238911  0.38820668  0.74979328     0.05000
N1353       N  0.96405695  0.40998988  0.75194126     0.67500
H1354       H  0.99335036  0.39218378  0.77741337     0.16400
H1355       H  0.96706165  0.34086118  0.72077004     0.16100
N1356       N  0.99589681  0.32281795  0.74680200     0.75200
O1357       O  0.94849165  0.41350202  0.76492941    -0.38300
O1358       O  0.97540686  0.42594269  0.74530083    -0.38200
O1359       O  0.98430383  0.30775187  0.75491533    -0.38900
O1360       O  0.01095372  0.31791303  0.73367330    -0.39000
C1361       C  0.12740722  0.37876487  0.84342050    -0.11300
C1362       C  0.12535243  0.39877871  0.85448300     0.05700
C1363       C  0.10470017  0.40916620  0.85476170    -0.06600
C1364       C  0.08637890  0.39833740  0.84617137    -0.07300
C1365       C  0.08831674  0.37764328  0.83637378    -0.01900
C1366       C  0.10932520  0.36832326  0.83421355     0.05000
N1367       N  0.11248974  0.34743965  0.82421038     0.67500
H1368       H  0.14311602  0.37056544  0.84256308     0.16400
H1369       H  0.07046371  0.40606957  0.84740892     0.16100
N1370       N  0.10198851  0.43063226  0.86361110     0.75200
O1371       O  0.11782718  0.34667640  0.80437736    -0.38300
O1372       O  0.11563094  0.33082116  0.83611849    -0.38200
O1373       O  0.10249824  0.44703214  0.85100259    -0.38900
O1374       O  0.09459884  0.43282029  0.88265988    -0.39000
C1375       C  0.37209162  0.76005126  0.00163374    -0.11300
C1376       C  0.35251824  0.77161094  0.99814863     0.05700
C1377       C  0.33889893  0.76512177  0.98074448    -0.06600
C1378       C  0.34520739  0.74782210  0.96718916    -0.07300
C1379       C  0.36513237  0.73672568  0.97014617    -0.01900
C1380       C  0.37848594  0.74279157  0.98792170     0.05000
N1381       N  0.39851315  0.73165318  0.99241023     0.67500
H1382       H  0.38272570  0.76459052  0.01504255     0.16400
H1383       H  0.33469639  0.74373123  0.95354366     0.16100
N1384       N  0.31936153  0.77684473  0.97554258     0.75200
O1385       O  0.41613415  0.73932841  0.98496218    -0.38300
O1386       O  0.39917966  0.71777866  0.00771177    -0.38200
O1387       O  0.31999984  0.79178176  0.96125597    -0.38900
O1388       O  0.30115455  0.76885974  0.98098902    -0.39000
C1389       C  0.24496781  0.50448471  0.88464293    -0.11300
C1390       C  0.25156092  0.50486980  0.86267603     0.05700
C1391       C  0.23960613  0.49218592  0.84757382    -0.06600
C1392       C  0.22303146  0.47809357  0.85490250    -0.07300
C1393       C  0.21748502  0.47653850  0.87710223    -0.01900
C1394       C  0.22795328  0.49082405  0.89186628     0.05000
N1395       N  0.22142076  0.49192953  0.91416831     0.67500
H1396       H  0.25330864  0.51464280  0.89648750     0.16400
H1397       H  0.21495038  0.46771648  0.84306560     0.16100
N1398       N  0.24438287  0.49285674  0.82480446     0.75200
O1399       O  0.23304974  0.48289529  0.92861103    -0.38300
O1400       O  0.20733665  0.50594511  0.91973143    -0.38200
O1401       O  0.25453445  0.47710111  0.81618835    -0.38900
O1402       O  0.23427417  0.50629279  0.81278927    -0.39000
C1403       C  0.34714103  0.59545688  0.89908698    -0.11300
C1404       C  0.32930268  0.59642820  0.88471134     0.05700
C1405       C  0.31988443  0.61716117  0.88016010    -0.06600
C1406       C  0.32905480  0.63620944  0.88899054    -0.07300
C1407       C  0.34769940  0.63533440  0.90224672    -0.01900
C1408       C  0.35646059  0.61454336  0.90772866     0.05000
N1409       N  0.37588031  0.61248242  0.92048557     0.67500
H1410       H  0.35471218  0.57979180  0.90286573     0.16400
H1411       H  0.32197918  0.65196273  0.88464018     0.16100
N1412       N  0.30185075  0.61946455  0.86556980     0.75200
O1413       O  0.37434311  0.60800794  0.94051257    -0.38300
O1414       O  0.39396296  0.60988000  0.91099294    -0.38200
O1415       O  0.28294000  0.62220239  0.87322867    -0.38900
O1416       O  0.30543125  0.62400790  0.84581605    -0.39000
C1417       C  0.35106226  0.55654325  0.74852721    -0.11300
C1418       C  0.35423490  0.57924355  0.74598940     0.05700
C1419       C  0.34394388  0.59356457  0.76081676    -0.06600
C1420       C  0.33191972  0.58492441  0.77836129    -0.07300
C1421       C  0.32975880  0.56212162  0.78154000    -0.01900
C1422       C  0.33899328  0.54790920  0.76589247     0.05000
N1423       N  0.33724942  0.52459712  0.76782758     0.67500
H1424       H  0.35842499  0.54518768  0.73710322     0.16400
H1425       H  0.32506694  0.59622062  0.79014011     0.16100
N1426       N  0.34660295  0.61679846  0.75920050     0.75200
O1427       O  0.32132306  0.51490081  0.75907230    -0.38300
O1428       O  0.35364429  0.51358482  0.77384862    -0.38200
O1429       O  0.33091066  0.62838070  0.75242637    -0.38900
O1430       O  0.36218006  0.62588625  0.76914880    -0.39000
C1431       C  0.36682944  0.65222936  0.63684690    -0.11300
C1432       C  0.38600747  0.63959772  0.63698091     0.05700
C1433       C  0.39749181  0.63694387  0.61714815    -0.06600
C1434       C  0.38846445  0.64473445  0.59761844    -0.07300
C1435       C  0.36838582  0.65576464  0.59729605    -0.01900
C1436       C  0.35804812  0.66044412  0.61736959     0.05000
N1437       N  0.33777579  0.67201864  0.61824459     0.67500
H1438       H  0.35787962  0.65487626  0.65187084     0.16400
H1439       H  0.39696821  0.64148458  0.58245118     0.16100
N1440       N  0.41787954  0.62561037  0.61628381     0.75200
O1441       O  0.32016755  0.66133498  0.61936781    -0.38300
O1442       O  0.33778101  0.69212680  0.62307542    -0.38200
O1443       O  0.41843944  0.60616067  0.60932690    -0.38900
O1444       O  0.43538016  0.63645454  0.61750214    -0.39000
C1445       C  0.34048897  0.93894406  0.25683013    -0.11300
C1446       C  0.33251430  0.92200676  0.27026552     0.05700
C1447       C  0.33724593  0.90003721  0.26444849    -0.06600
C1448       C  0.35094620  0.89564370  0.24666557    -0.07300
C1449       C  0.36041721  0.91269355  0.23450850    -0.01900
C1450       C  0.35434095  0.93454897  0.23921450     0.05000
N1451       N  0.36240782  0.95257745  0.22660268     0.67500
H1452       H  0.33693033  0.95592567  0.26064784     0.16400
H1453       H  0.35510128  0.87873591  0.24311206     0.16100
N1454       N  0.32911848  0.88193302  0.27685882     0.75200
O1455       O  0.35128371  0.95963890  0.21074864    -0.38300
O1456       O  0.37762349  0.96427198  0.23412814    -0.38200
O1457       O  0.31198254  0.87235545  0.27059633    -0.38900
O1458       O  0.34169101  0.87225849  0.29005896    -0.39000
C1459       C  0.37793921  0.74562019  0.48173475    -0.11300
C1460       C  0.36258504  0.75213761  0.46595076     0.05700
C1461       C  0.34089510  0.74438050  0.46791856    -0.06600
C1462       C  0.33545696  0.72940305  0.48443351    -0.07300
C1463       C  0.35120561  0.72164220  0.49916283    -0.01900
C1464       C  0.37249785  0.73048231  0.49816430     0.05000
N1465       N  0.38873022  0.72454542  0.51383266     0.67500
H1466       H  0.39455951  0.75165179  0.48088708     0.16400
H1467       H  0.31894636  0.72303297  0.48506544     0.16100
N1468       N  0.32415326  0.75126086  0.45318981     0.75200
O1469       O  0.40338933  0.71098342  0.50866692    -0.38300
O1470       O  0.39154399  0.73661800  0.53025365    -0.38200
O1471       O  0.31846310  0.73864674  0.43795378    -0.38900
O1472       O  0.31169778  0.76680847  0.45859375    -0.39000
C1473       C  0.34979021  0.86238709  0.39975870    -0.11300
C1474       C  0.34583274  0.84269518  0.38853941     0.05700
C1475       C  0.33194802  0.84321643  0.37015513    -0.06600
C1476       C  0.32311694  0.86318016  0.36302148    -0.07300
C1477       C  0.32823772  0.88302580  0.37340713    -0.01900
C1478       C  0.34140121  0.88243289  0.39228360     0.05000
N1479       N  0.34694958  0.90201558  0.40376148     0.67500
H1480       H  0.36034441  0.86247110  0.41394616     0.16400
H1481       H  0.31309571  0.86320631  0.34844867     0.16100
N1482       N  0.32712746  0.82385439  0.35803147     0.75200
O1483       O  0.33563124  0.90770776  0.41995136    -0.38300
O1484       O  0.36548207  0.91058909  0.40088678    -0.38200
O1485       O  0.30883447  0.81468167  0.36055214    -0.38900
O1486       O  0.33823804  0.81960221  0.34126211    -0.39000
C1487       C  0.44649215  0.84440024  0.39070582    -0.11300
C1488       C  0.44771247  0.82357315  0.40059141     0.05700
C1489       C  0.46826924  0.81312574  0.40177032    -0.06600
C1490       C  0.48621334  0.82224021  0.39080980    -0.07300
C1491       C  0.48426316  0.84176249  0.37862947    -0.01900
C1492       C  0.46446928  0.85356015  0.37985702     0.05000
N1493       N  0.46201464  0.87449686  0.36961734     0.67500
H1494       H  0.43108655  0.85316099  0.39024709     0.16400
H1495       H  0.50138392  0.81307473  0.39063664     0.16100
N1496       N  0.47092385  0.79242320  0.41244019     0.75200
O1497       O  0.45278182  0.87573709  0.35127387    -0.38300
O1498       O  0.46392029  0.89159531  0.38099098    -0.38200
O1499       O  0.47209259  0.77520977  0.40116265    -0.38900
O1500       O  0.47725140  0.79193702  0.43199908    -0.39000
C1501       C  0.45096225  0.65148490  0.89335369    -0.11300
C1502       C  0.44875529  0.67398767  0.89803587     0.05700
C1503       C  0.46399321  0.68881745  0.88892807    -0.06600
C1504       C  0.47980007  0.68122992  0.87438979    -0.07300
C1505       C  0.48097746  0.65902654  0.86848874    -0.01900
C1506       C  0.46678382  0.64392196  0.87866413     0.05000
N1507       N  0.46686131  0.62122873  0.87291224     0.67500
H1508       H  0.43939119  0.63975248  0.89996640     0.16400
H1509       H  0.49089763  0.69305585  0.86714483     0.16100
N1510       N  0.46300952  0.71182795  0.89322892     0.75200
O1511       O  0.47590296  0.60752260  0.88545821    -0.38300
O1512       O  0.45381761  0.61449307  0.85849126    -0.38200
O1513       O  0.47505176  0.71982462  0.90786496    -0.38900
O1514       O  0.45417930  0.72447307  0.87947761    -0.39000
C1515       C  0.47814407  0.64441589  0.75070617    -0.11300
C1516       C  0.49070050  0.62754297  0.76001920     0.05700
C1517       C  0.48738801  0.60579910  0.75277920    -0.06600
C1518       C  0.47116455  0.60131664  0.73731198    -0.07300
C1519       C  0.45760131  0.61799790  0.72912280    -0.01900
C1520       C  0.46155252  0.63986779  0.73566249     0.05000
N1521       N  0.44853892  0.65763478  0.72770995     0.67500
H1522       H  0.48039531  0.66124474  0.75599537     0.16400
H1523       H  0.46851294  0.58440947  0.73247766     0.16100
N1524       N  0.49999995  0.58797109  0.76123206     0.75200
O1525       O  0.43314222  0.66484501  0.73931104    -0.38300
O1526       O  0.45551590  0.66914842  0.71206996    -0.38200
O1527       O  0.49156623  0.57518370  0.77508397    -0.38900
O1528       O  0.51706437  0.58211455  0.75132668    -0.39000
C1529       C  0.60769530  0.57766500  0.84831358    -0.11300
C1530       C  0.62662790  0.59058727  0.84619812     0.05700
C1531       C  0.62527869  0.61055640  0.83447443    -0.06600
C1532       C  0.60530967  0.61724761  0.82565840    -0.07300
C1533       C  0.58619050  0.60499823  0.82895937    -0.01900
C1534       C  0.58754921  0.58480930  0.84013814     0.05000
N1535       N  0.56867522  0.57147743  0.84356209     0.67500
H1536       H  0.60825580  0.56223415  0.85719125     0.16400
H1537       H  0.60451600  0.63307260  0.81748849     0.16100
N1538       N  0.64350004  0.62508613  0.83266447     0.75200
O1539       O  0.56446907  0.55631515  0.83026577    -0.38300
O1540       O  0.55962947  0.57133713  0.86202787    -0.38200
O1541       O  0.65339424  0.62669903  0.81470848    -0.38900
O1542       O  0.64613635  0.63978400  0.84685840    -0.39000
C1543       C  0.95571558  0.29138516  0.88510803    -0.11300
C1544       C  0.94061846  0.30756362  0.89118295     0.05700
C1545       C  0.94595568  0.32982809  0.88725734    -0.06600
C1546       C  0.96535021  0.33526088  0.87627323    -0.07300
C1547       C  0.97958178  0.31890784  0.86870567    -0.01900
C1548       C  0.97489886  0.29676184  0.87390139     0.05000
N1549       N  0.98908311  0.27935430  0.86743219     0.67500
H1550       H  0.95211374  0.27420090  0.88801948     0.16400
H1551       H  0.96873142  0.35237431  0.87275597     0.16100
N1552       N  0.93178998  0.34715063  0.89397126     0.75200
O1553       O  0.00306214  0.27217736  0.88078073    -0.38300
O1554       O  0.98405111  0.26786145  0.85113059    -0.38200
O1555       O  0.93519783  0.35642996  0.91199567    -0.38900
O1556       O  0.91974511  0.35645920  0.88004354    -0.39000
C1557       C  0.73830149  0.49027217  0.84228453    -0.11300
C1558       C  0.74622218  0.47668721  0.85899868     0.05700
C1559       C  0.73805971  0.47966488  0.88031587    -0.06600
C1560       C  0.72326843  0.49674526  0.88464735    -0.07300
C1561       C  0.71655950  0.51139562  0.86817876    -0.01900
C1562       C  0.72399004  0.50767060  0.84664609     0.05000
N1563       N  0.71858103  0.52228240  0.82919825     0.67500
H1564       H  0.74451674  0.48843209  0.82585492     0.16400
H1565       H  0.71760284  0.49896021  0.90121933     0.16100
N1566       N  0.74454557  0.46551485  0.89776958     0.75200
O1567       O  0.73032162  0.53898432  0.82589845    -0.38300
O1568       O  0.70569451  0.51596810  0.81445921    -0.38200
O1569       O  0.75732693  0.47266018  0.91222324    -0.38900
O1570       O  0.73360905  0.44837068  0.90153646    -0.39000
C1571       C  0.80717312  0.36283985  0.87567035    -0.11300
C1572       C  0.81720196  0.38244340  0.88241095     0.05700
C1573       C  0.83418873  0.38116969  0.89795194    -0.06600
C1574       C  0.84200607  0.36063715  0.90474638    -0.07300
C1575       C  0.83338246  0.34103774  0.89632888    -0.01900
C1576       C  0.81505813  0.34230368  0.88241919     0.05000
N1577       N  0.80441543  0.32298279  0.87470164     0.67500
H1578       H  0.79374114  0.36331251  0.86414721     0.16400
H1579       H  0.85583320  0.36014429  0.91579645     0.16100
N1580       N  0.84436780  0.40046043  0.90635421     0.75200
O1581       O  0.78779219  0.31596167  0.88465801    -0.38300
O1582       O  0.80814379  0.31641915  0.85559087    -0.38200
O1583       O  0.83825361  0.40794585  0.92449132    -0.38900
O1584       O  0.86220120  0.40691584  0.89828926    -0.39000
C1585       C  0.84519396  0.38898615  0.78799359    -0.11300
C1586       C  0.82788493  0.40373617  0.78436318     0.05700
C1587       C  0.82229046  0.40899616  0.76264750    -0.06600
C1588       C  0.83524183  0.40126347  0.74543642    -0.07300
C1589       C  0.85380328  0.38817249  0.74925792    -0.01900
C1590       C  0.85804120  0.38112944  0.77082212     0.05000
N1591       N  0.87594649  0.36694807  0.77586596     0.67500
H1592       H  0.84949065  0.38422171  0.80448435     0.16400
H1593       H  0.83136286  0.40662847  0.72902862     0.16100
N1594       N  0.80460130  0.42344988  0.75773118     0.75200
O1595       O  0.89344008  0.37506456  0.78311919    -0.38300
O1596       O  0.87250191  0.34665489  0.77815083    -0.38200
O1597       O  0.80862508  0.44320257  0.75297348    -0.38900
O1598       O  0.78634897  0.41538787  0.75259730    -0.39000
C1599       C  0.97018591  0.13616365  0.37570560    -0.11300
C1600       C  0.98541602  0.15207811  0.36917605     0.05700
C1601       C  0.98443710  0.17311879  0.37874844    -0.06600
C1602       C  0.96735811  0.17838372  0.39295718    -0.07300
C1603       C  0.95072921  0.16323631  0.39761420    -0.01900
C1604       C  0.95281882  0.14156736  0.38963439     0.05000
N1605       N  0.93720534  0.12497627  0.39496670     0.67500
H1606       H  0.97096591  0.11978230  0.36896201     0.16400
H1607       H  0.96628699  0.19501387  0.39903930     0.16100
N1608       N  0.00026579  0.18961714  0.37373969     0.75200
O1609       O  0.92175080  0.12115880  0.38192177    -0.38300
O1610       O  0.94203227  0.11076711  0.40918458    -0.38200
O1611       O  0.99515191  0.20525067  0.36119376    -0.38900
O1612       O  0.01716662  0.19119865  0.38538738    -0.39000
C1613       C  0.22828851  0.99485239  0.37712617    -0.11300
C1614       C  0.22251992  0.01089922  0.36163519     0.05700
C1615       C  0.23054684  0.00856365  0.34011734    -0.06600
C1616       C  0.24515830  0.99161080  0.33508484    -0.07300
C1617       C  0.25246266  0.97677530  0.35104861    -0.01900
C1618       C  0.24311464  0.97798336  0.37210384     0.05000
N1619       N  0.24884669  0.96261742  0.38879160     0.67500
H1620       H  0.22205371  0.99593095  0.39362561     0.16400
H1621       H  0.25185016  0.99095377  0.31873891     0.16100
N1622       N  0.22512248  0.02395884  0.32335614     0.75200
O1623       O  0.26369498  0.96745291  0.40219410    -0.38300
O1624       O  0.23591297  0.94711624  0.39321832    -0.38200
O1625       O  0.23856252  0.03887286  0.31846018    -0.38900
O1626       O  0.20957647  0.01978749  0.31053319    -0.39000
C1627       C  0.11118987  0.07680726  0.35418406    -0.11300
C1628       C  0.13057971  0.08473898  0.34478135     0.05700
C1629       C  0.12904755  0.09861025  0.32635629    -0.06600
C1630       C  0.10850108  0.10516206  0.31862316    -0.07300
C1631       C  0.08915078  0.09857961  0.32910192    -0.01900
C1632       C  0.09067214  0.08367086  0.34673021     0.05000
N1633       N  0.07168041  0.07607361  0.35795945     0.67500
H1634       H  0.11187697  0.06599309  0.36826874     0.16400
H1635       H  0.10783216  0.11651514  0.30496305     0.16100
N1636       N  0.14809489  0.10668623  0.31558069     0.75200
O1637       O  0.06296179  0.05822282  0.35230971    -0.38300
O1638       O  0.06675062  0.08437560  0.37610816    -0.38200
O1639       O  0.15439757  0.09753074  0.29828650    -0.38900
O1640       O  0.15503431  0.12563388  0.32006877    -0.39000
C1641       C  0.83647621  0.23842530  0.96591835    -0.11300
C1642       C  0.85754756  0.24756302  0.96546324     0.05700
C1643       C  0.87232852  0.24160605  0.98219026    -0.06600
C1644       C  0.86597515  0.22654520  0.99838990    -0.07300
C1645       C  0.84518961  0.21673611  0.99826189    -0.01900
C1646       C  0.83030014  0.22302422  0.98174381     0.05000
N1647       N  0.80936808  0.21287371  0.97973976     0.67500
H1648       H  0.82480532  0.24244334  0.95318518     0.16400
H1649       H  0.87780144  0.22191458  0.01077312     0.16100
N1650       N  0.89413653  0.24986977  0.98255463     0.75200
O1651       O  0.79250828  0.22341033  0.98517332    -0.38300
O1652       O  0.80740538  0.19596753  0.96808564    -0.38200
O1653       O  0.89860478  0.26611024  0.99443561    -0.38900
O1654       O  0.90945068  0.23809573  0.97535553    -0.39000
C1655       C  0.83811523  0.07237039  0.24895036    -0.11300
C1656       C  0.85584343  0.08699985  0.24984979     0.05700
C1657       C  0.86094816  0.09690757  0.26999668    -0.06600
C1658       C  0.84992359  0.09028915  0.28889516    -0.07300
C1659       C  0.83388226  0.07380094  0.28829992    -0.01900
C1660       C  0.82719110  0.06566095  0.26787193     0.05000
N1661       N  0.81094358  0.04894599  0.26614425     0.67500
H1662       H  0.83360542  0.06484117  0.23362096     0.16400
H1663       H  0.85501528  0.09711617  0.30437379     0.16100
N1664       N  0.87846468  0.11224965  0.27201803     0.75200
O1665       O  0.79226214  0.05383939  0.25894780    -0.38300
O1666       O  0.81661172  0.02905137  0.26704808    -0.38200
O1667       O  0.87424151  0.13250809  0.27252656    -0.38900
O1668       O  0.89692498  0.10559482  0.27835729    -0.39000
C1669       C  0.97106663  0.12372959  0.22643799    -0.11300
C1670       C  0.96396850  0.10174699  0.22674626     0.05700
C1671       C  0.97428243  0.08708981  0.24140980    -0.06600
C1672       C  0.98939386  0.09501268  0.25666519    -0.07300
C1673       C  0.99508116  0.11735179  0.25760574    -0.01900
C1674       C  0.98657430  0.13156011  0.24141626     0.05000
N1675       N  0.99273424  0.15414517  0.24036797     0.67500
H1676       H  0.96391271  0.13527826  0.21497355     0.16400
H1677       H  0.99624454  0.08353138  0.26838112     0.16100
N1678       N  0.96914282  0.06423226  0.24168694     0.75200
O1679       O  0.00781641  0.15986424  0.22755355    -0.38300
O1680       O  0.97986522  0.16852857  0.24764201    -0.38200
O1681       O  0.98207457  0.05090174  0.23274037    -0.38900
O1682       O  0.95527890  0.05711818  0.25516701    -0.39000
C1683       C  0.89708890  0.12454933  0.11924585    -0.11300
C1684       C  0.88534530  0.12837411  0.13855638     0.05700
C1685       C  0.86685122  0.14225860  0.13758703    -0.06600
C1686       C  0.86007528  0.15104039  0.11754747    -0.07300
C1687       C  0.87096675  0.14594180  0.09808049    -0.01900
C1688       C  0.89003925  0.13299407  0.09916664     0.05000
N1689       N  0.90240843  0.12811258  0.08006862     0.67500
H1690       H  0.91149416  0.11417558  0.11949538     0.16400
H1691       H  0.84528744  0.16086010  0.11710054     0.16100
N1692       N  0.85400580  0.14672279  0.15647854     0.75200
O1693       O  0.91837761  0.14020406  0.07509395    -0.38300
O1694       O  0.90079120  0.10937493  0.07153904    -0.38200
O1695       O  0.85590945  0.16502206  0.16583441    -0.38900
O1696       O  0.83762040  0.13485703  0.16057718    -0.39000
C1697       C  0.37723897  0.45127748  0.84717795    -0.11300
C1698       C  0.39140721  0.45431253  0.82946552     0.05700
C1699       C  0.39481458  0.47564257  0.82131005    -0.06600
C1700       C  0.38231912  0.49302652  0.82942671    -0.07300
C1701       C  0.36620126  0.48951686  0.84544534    -0.01900
C1702       C  0.36468071  0.46856900  0.85525345     0.05000
N1703       N  0.34939399  0.46403092  0.87225049     0.67500
H1704       H  0.37464462  0.43495912  0.85379868     0.16400
H1705       H  0.38404090  0.50900138  0.82177623     0.16100
N1706       N  0.40868692  0.47948062  0.80298322     0.75200
O1707       O  0.33139286  0.45516205  0.86754336    -0.38300
O1708       O  0.35602184  0.46345903  0.89171084    -0.38200
O1709       O  0.40050767  0.48043399  0.78413335    -0.38900
O1710       O  0.42792612  0.48619419  0.80600388    -0.39000
C1711       C  0.38352703  0.35612048  0.88840372    -0.11300
C1712       C  0.36808135  0.33921039  0.88645246     0.05700
C1713       C  0.36386555  0.33061031  0.86547626    -0.06600
C1714       C  0.37445149  0.33944923  0.84714721    -0.07300
C1715       C  0.38911453  0.35706862  0.84900264    -0.01900
C1716       C  0.39382909  0.36520660  0.87006634     0.05000
N1717       N  0.40739733  0.38402429  0.87308623     0.67500
H1718       H  0.38689746  0.36318977  0.90423921     0.16400
H1719       H  0.37037289  0.33306280  0.83118900     0.16100
N1720       N  0.34760937  0.31415387  0.86216144     0.75200
O1721       O  0.39890439  0.40288512  0.87251467    -0.38300
O1722       O  0.42615891  0.38166408  0.88125266    -0.38200
O1723       O  0.32860142  0.31980962  0.85652276    -0.38900
O1724       O  0.35328570  0.29433421  0.86043702    -0.39000
C1725       C  0.26828005  0.35511339  0.88959732    -0.11300
C1726       C  0.26637606  0.33970529  0.90655683     0.05700
C1727       C  0.24552907  0.33532899  0.91526656    -0.06600
C1728       C  0.22772591  0.34830461  0.90888843    -0.07300
C1729       C  0.23025826  0.36565788  0.89389069    -0.01900
C1730       C  0.25052861  0.36803859  0.88317127     0.05000
N1731       N  0.25386133  0.38432750  0.86670313     0.67500
H1732       H  0.28408224  0.35824676  0.88223727     0.16400
H1733       H  0.21220043  0.34575782  0.91699325     0.16100
N1734       N  0.24252476  0.31944568  0.93217983     0.75200
O1735       O  0.26329314  0.40204339  0.87160876    -0.38300
O1736       O  0.25247785  0.37888762  0.84693735    -0.38200
O1737       O  0.24174266  0.32564062  0.95175756    -0.38900
O1738       O  0.23607068  0.30041771  0.92733694    -0.39000
C1739       C  0.38449288  0.99402087  0.15233202    -0.11300
C1740       C  0.36741157  0.98977733  0.13757154     0.05700
C1741       C  0.36634846  0.96884579  0.12779617    -0.06600
C1742       C  0.38067024  0.95228319  0.13457541    -0.07300
C1743       C  0.39585828  0.95578308  0.15140814    -0.01900
C1744       C  0.39859737  0.97728907  0.15936561     0.05000
N1745       N  0.41424612  0.98211608  0.17591976     0.67500
H1746       H  0.38603311  0.01007359  0.15970442     0.16400
H1747       H  0.37861047  0.93602672  0.12776763     0.16100
N1748       N  0.34982843  0.96344414  0.11226189     0.75200
O1749       O  0.43255685  0.98989768  0.17053097    -0.38300
O1750       O  0.40809457  0.98345604  0.19548519    -0.38200
O1751       O  0.35494828  0.96176494  0.09242948    -0.38900
O1752       O  0.33219335  0.95500780  0.11883035    -0.39000
C1753       C  0.36571493  0.26119575  0.98340004    -0.11300
C1754       C  0.34350321  0.26611365  0.98044666     0.05700
C1755       C  0.32796755  0.25478934  0.99324928    -0.06600
C1756       C  0.33491178  0.23977530  0.00919149    -0.07300
C1757       C  0.35719503  0.23558938  0.01285535    -0.01900
C1758       C  0.37267326  0.24615003  0.99930426     0.05000
N1759       N  0.39558352  0.24291696  0.00224470     0.67500
H1760       H  0.37794352  0.26966118  0.97373787     0.16400
H1761       H  0.32267658  0.23187186  0.01929576     0.16100
N1762       N  0.30518429  0.25949994  0.99151396     0.75200
O1763       O  0.40557935  0.22981101  0.98989890    -0.38300
O1764       O  0.40635225  0.25673242  0.01310495    -0.38200
O1765       O  0.29304868  0.24678774  0.98076443    -0.38900
O1766       O  0.29665443  0.27312033  0.00439682    -0.39000
C1767       C  0.34159044  0.12040132  0.07516868    -0.11300
C1768       C  0.33691285  0.13924855  0.08755460     0.05700
C1769       C  0.32407603  0.13689498  0.10655307    -0.06600
C1770       C  0.31647100  0.11612572  0.11276220    -0.07300
C1771       C  0.32220004  0.09724375  0.10104309    -0.01900
C1772       C  0.33465263  0.09952500  0.08188507     0.05000
N1773       N  0.34107316  0.08074606  0.06953741     0.67500
H1774       H  0.35158687  0.12167541  0.06065207     0.16400
H1775       H  0.30732954  0.11462567  0.12782338     0.16100
N1776       N  0.31976419  0.15504607  0.12057660     0.75200
O1777       O  0.32687157  0.06935094  0.05989016    -0.38300
O1778       O  0.36071242  0.07448790  0.06978459    -0.38200
O1779       O  0.30071608  0.16287378  0.12141732    -0.38900
O1780       O  0.33306832  0.15932268  0.13568400    -0.39000
C1781       C  0.49035892  0.38600751  0.72495614    -0.11300
C1782       C  0.49452284  0.36356316  0.72153801     0.05700
C1783       C  0.48455557  0.34820360  0.73571893    -0.06600
C1784       C  0.46940611  0.35529381  0.75136095    -0.07300
C1785       C  0.46433863  0.37762745  0.75391149    -0.01900
C1786       C  0.47575425  0.39314161  0.74107590     0.05000
N1787       N  0.47195059  0.41615581  0.74336363     0.67500
H1788       H  0.49812375  0.39824715  0.71467432     0.16400
H1789       H  0.46123124  0.34309713  0.76137716     0.16100
N1790       N  0.48927979  0.32530696  0.73432074     0.75200
O1791       O  0.48345823  0.42702005  0.75653189    -0.38300
O1792       O  0.46076157  0.42617661  0.72921119    -0.38200
O1793       O  0.50287705  0.31693305  0.74737816    -0.38900
O1794       O  0.47665920  0.31294398  0.72372678    -0.39000
C1795       C  0.75392768  0.36126954  0.59824826    -0.11300
C1796       C  0.73523240  0.35897125  0.58527234     0.05700
C1797       C  0.73554055  0.34358601  0.56808840    -0.06600
C1798       C  0.75490241  0.33238061  0.56310113    -0.07300
C1799       C  0.77425396  0.33653129  0.57463326    -0.01900
C1800       C  0.77338755  0.35049036  0.59298229     0.05000
N1801       N  0.79237036  0.35492307  0.60577593     0.67500
H1802       H  0.75400421  0.37281680  0.61165635     0.16400
H1803       H  0.75512680  0.32159620  0.54908522     0.16100
N1804       N  0.71662725  0.33972007  0.55501807     0.75200
O1805       O  0.80277471  0.37252088  0.60260475    -0.38300
O1806       O  0.79532783  0.34439773  0.62327123    -0.38200
O1807       O  0.71536289  0.34828868  0.53630996    -0.38900
O1808       O  0.70398361  0.32413428  0.55995186    -0.39000
C1809       C  0.62878688  0.38621956  0.64872044    -0.11300
C1810       C  0.62824003  0.40054699  0.63076949     0.05700
C1811       C  0.60776234  0.40778895  0.62292618    -0.06600
C1812       C  0.58851134  0.39958684  0.63213237    -0.07300
C1813       C  0.58902122  0.38408397  0.64909489    -0.01900
C1814       C  0.60950356  0.37805000  0.65799452     0.05000
N1815       N  0.61119206  0.36261389  0.67550333     0.67500
H1816       H  0.64433964  0.38059134  0.65509396     0.16400
H1817       H  0.57303381  0.40456757  0.62508517     0.16100
N1818       N  0.60609775  0.42176346  0.60426071     0.75200
O1819       O  0.61414253  0.34257224  0.67133177    -0.38300
O1820       O  0.61438197  0.36946329  0.69461406    -0.38200
O1821       O  0.60273436  0.41338987  0.58578916    -0.38900
O1822       O  0.60316903  0.44207864  0.60685827    -0.39000
C1823       C  0.88978312  0.95508518  0.33262955    -0.11300
C1824       C  0.89154556  0.95328668  0.30980040     0.05700
C1825       C  0.88429171  0.97105834  0.29683097    -0.06600
C1826       C  0.87298800  0.98843454  0.30644936    -0.07300
C1827       C  0.86917195  0.98907601  0.32899732    -0.01900
C1828       C  0.87905906  0.97298148  0.34231312     0.05000
N1829       N  0.87746304  0.97389577  0.36550616     0.67500
H1830       H  0.89585271  0.94202864  0.34304411     0.16400
H1831       H  0.86643678  0.00121069  0.29596389     0.16100
N1832       N  0.88719519  0.97133050  0.27373879     0.75200
O1833       O  0.86334874  0.96238374  0.37520348    -0.38300
O1834       O  0.89289769  0.98223706  0.37628969    -0.38200
O1835       O  0.87129412  0.96666012  0.26153009    -0.38900
O1836       O  0.90348801  0.98117162  0.26579057    -0.39000
C1837       C  0.87126574  0.82285466  0.36216489    -0.11300
C1838       C  0.88061731  0.83218597  0.38088476     0.05700
C1839       C  0.89782896  0.84735247  0.37835191    -0.06600
C1840       C  0.90378169  0.85446383  0.35750739    -0.07300
C1841       C  0.89281684  0.84688881  0.33889509    -0.01900
C1842       C  0.87718400  0.83003746  0.34128081     0.05000
N1843       N  0.86687737  0.82032895  0.32278794     0.67500
H1844       H  0.85829845  0.81080962  0.36369911     0.16400
H1845       H  0.91624508  0.86704489  0.35606590     0.16100
N1846       N  0.90900580  0.85623960  0.39674198     0.75200
O1847       O  0.87533991  0.80356819  0.31422545    -0.38300
O1848       O  0.84737216  0.82524551  0.31829369    -0.38200
O1849       O  0.92636255  0.84718587  0.40325111    -0.38900
O1850       O  0.90463277  0.87547473  0.40290904    -0.39000
C1851       C  0.76194192  0.83757707  0.42479236    -0.11300
C1852       C  0.77921592  0.83799024  0.40985598     0.05700
C1853       C  0.77608712  0.84850688  0.38952725    -0.06600
C1854       C  0.75669032  0.86006863  0.38544191    -0.07300
C1855       C  0.74033304  0.86153354  0.40138900    -0.01900
C1856       C  0.74271305  0.84925931  0.42086124     0.05000
N1857       N  0.72625180  0.84929046  0.43735529     0.67500
H1858       H  0.76392289  0.82945500  0.44043601     0.16400
H1859       H  0.75501006  0.86896686  0.37018867     0.16100
N1860       N  0.79250392  0.84789374  0.37301073     0.75200
O1861       O  0.71174221  0.83460309  0.43721834    -0.38300
O1862       O  0.72899385  0.86064545  0.45428955    -0.38200
O1863       O  0.79137817  0.83342811  0.35839889    -0.38900
O1864       O  0.80458489  0.86440602  0.37005358    -0.39000
C1865       C  0.87359317  0.47441429  0.64219093    -0.11300
C1866       C  0.86476456  0.48908566  0.65742206     0.05700
C1867       C  0.86982901  0.48603039  0.67971780    -0.06600
C1868       C  0.88214777  0.46792005  0.68637203    -0.07300
C1869       C  0.88925550  0.45208373  0.67144817    -0.01900
C1870       C  0.88548007  0.45584713  0.64895192     0.05000
N1871       N  0.89205601  0.44028418  0.63287035     0.67500
H1872       H  0.86999646  0.47650460  0.62498942     0.16400
H1873       H  0.88504568  0.46564774  0.70368411     0.16100
N1874       N  0.86176668  0.50055267  0.69607457     0.75200
O1875       O  0.87958756  0.42444925  0.62836974    -0.38300
O1876       O  0.90743619  0.44503191  0.62002486    -0.38200
O1877       O  0.84574957  0.49464088  0.70760716    -0.38900
O1878       O  0.87360017  0.51622354  0.70241623    -0.39000
C1879       C  0.75438571  0.49602045  0.59843258    -0.11300
C1880       C  0.75900428  0.49962302  0.62053926     0.05700
C1881       C  0.74643931  0.48847695  0.63638047    -0.06600
C1882       C  0.73048270  0.47334466  0.62988909    -0.07300
C1883       C  0.72647827  0.46900042  0.60775592    -0.01900
C1884       C  0.73822121  0.48111095  0.59192713     0.05000
N1885       N  0.73461928  0.47794389  0.56916397     0.67500
H1886       H  0.76365864  0.50462339  0.58599749     0.16400
H1887       H  0.72166808  0.46436454  0.64238980     0.16100
N1888       N  0.75066919  0.49108768  0.65911820     0.75200
O1889       O  0.72175775  0.49061262  0.55912154    -0.38300
O1890       O  0.74763149  0.46609102  0.55846653    -0.38200
O1891       O  0.73753294  0.50200659  0.67061302    -0.38900
O1892       O  0.76453733  0.47885480  0.66832202    -0.39000
C1893       C  0.84857899  0.73896454  0.50645368    -0.11300
C1894       C  0.87065621  0.73598871  0.51204430     0.05700
C1895       C  0.88653353  0.74876365  0.50113722    -0.06600
C1896       C  0.88009242  0.76447550  0.48569233    -0.07300
C1897       C  0.85798483  0.76796894  0.48061181    -0.01900
C1898       C  0.84213664  0.75465287  0.49092414     0.05000
N1899       N  0.81936846  0.75748037  0.48670880     0.67500
H1900       H  0.83606628  0.72935908  0.51455763     0.16400
H1901       H  0.89259741  0.77443012  0.47800002     0.16100
N1902       N  0.90919514  0.74697073  0.50634353     0.75200
O1903       O  0.80993931  0.74479368  0.47351272    -0.38300
O1904       O  0.80802685  0.76882610  0.49961077    -0.38200
O1905       O  0.92162990  0.73635652  0.49383966    -0.38900
O1906       O  0.91740036  0.75987184  0.52013711    -0.39000
C1907       C  0.82921892  0.63541217  0.59188086    -0.11300
C1908       C  0.84792718  0.63468975  0.57872273     0.05700
C1909       C  0.85595300  0.61392825  0.57226976    -0.06600
C1910       C  0.84670885  0.59468859  0.58092509    -0.07300
C1911       C  0.82914139  0.59549132  0.59563342    -0.01900
C1912       C  0.81961196  0.61617873  0.60005807     0.05000
N1913       N  0.80082646  0.61818973  0.61367778     0.67500
H1914       H  0.82236187  0.65112758  0.59652997     0.16400
H1915       H  0.85403570  0.57903670  0.57681624     0.16100
N1916       N  0.87437820  0.61199692  0.55814306     0.75200
O1917       O  0.80327922  0.62244613  0.63363043    -0.38300
O1918       O  0.78232685  0.62083505  0.60500142    -0.38200
O1919       O  0.89307754  0.60886501  0.56620894    -0.38900
O1920       O  0.87133010  0.60849053  0.53812323    -0.39000
C1921       C  0.97052500  0.88983166  0.23297940    -0.11300
C1922       C  0.95920832  0.87257763  0.24316502     0.05700
C1923       C  0.96537472  0.85075845  0.23826476    -0.06600
C1924       C  0.98125880  0.84671488  0.22235823    -0.07300
C1925       C  0.99135990  0.86395435  0.21098334    -0.01900
C1926       C  0.98643980  0.88576849  0.21707412     0.05000
N1927       N  0.99735498  0.90403018  0.20730262     0.67500
H1928       H  0.96648320  0.90673487  0.23679120     0.16400
H1929       H  0.98502018  0.82981029  0.21826423     0.16100
N1930       N  0.95545881  0.83243025  0.24894127     0.75200
O1931       O  0.98767441  0.91512964  0.19283675    -0.38300
O1932       O  0.01385710  0.91205448  0.21665607    -0.38200
O1933       O  0.94081027  0.82170125  0.23920829    -0.38900
O1934       O  0.96463535  0.82413927  0.26544065    -0.39000
C1935       C  0.25737488  0.83535981  0.05863684    -0.11300
C1936       C  0.27619296  0.83838313  0.07125672     0.05700
C1937       C  0.27462551  0.85021520  0.09092693    -0.06600
C1938       C  0.25500739  0.86055876  0.09652634    -0.07300
C1939       C  0.23677886  0.85932822  0.08276782    -0.01900
C1940       C  0.23779022  0.84579807  0.06413172     0.05000
N1941       N  0.21933163  0.84312911  0.05014257     0.67500
H1942       H  0.25822542  0.82623205  0.04353786     0.16400
H1943       H  0.25445069  0.87063290  0.11103075     0.16100
N1944       N  0.29305506  0.85237238  0.10502676     0.75200
O1945       O  0.21809349  0.85427880  0.03281797    -0.38300
O1946       O  0.20738449  0.82641001  0.05237586    -0.38200
O1947       O  0.30222668  0.87075607  0.10735580    -0.38900
O1948       O  0.30086396  0.83561740  0.11429473    -0.39000
C1949       C  0.22490486  0.97384144  0.12811812    -0.11300
C1950       C  0.22378153  0.96709507  0.10629215     0.05700
C1951       C  0.23708661  0.97773981  0.09075405    -0.06600
C1952       C  0.25203410  0.99372578  0.09746539    -0.07300
C1953       C  0.25414455  0.99956135  0.11952069    -0.01900
C1954       C  0.23969689  0.99002066  0.13480744     0.05000
N1955       N  0.23988724  0.99631049  0.15719918     0.67500
H1956       H  0.21444874  0.96622391  0.14023508     0.16400
H1957       H  0.26277581  0.00087312  0.08532585     0.16100
N1958       N  0.23685745  0.97144017  0.06835685     0.75200
O1959       O  0.22699769  0.01112156  0.16354271    -0.38300
O1960       O  0.24877057  0.98387647  0.17109575    -0.38200
O1961       O  0.22685444  0.98321872  0.05466063    -0.38900
O1962       O  0.25020485  0.95716813  0.06174261    -0.39000
C1963       C  0.10157955  0.88480301  0.15348642    -0.11300
C1964       C  0.08313590  0.88968485  0.14070448     0.05700
C1965       C  0.08576793  0.90312811  0.12209925    -0.06600
C1966       C  0.10670531  0.90991135  0.11586463    -0.07300
C1967       C  0.12532948  0.90304674  0.12742281    -0.01900
C1968       C  0.12253701  0.89102788  0.14689237     0.05000
N1969       N  0.14076835  0.88431101  0.15981166     0.67500
H1970       H  0.10001060  0.87474355  0.16802132     0.16400
H1971       H  0.10846288  0.91927420  0.10089630     0.16100
N1972       N  0.06765399  0.90894732  0.10857809     0.75200
O1973       O  0.14606741  0.89563684  0.17614522    -0.38300
O1974       O  0.14753453  0.86480480  0.15842926    -0.38200
O1975       O  0.05922931  0.92775066  0.11035648    -0.38900
O1976       O  0.06346359  0.89754821  0.09197082    -0.39000
C1977       C  0.15708353  0.88669776  0.99043618    -0.11300
C1978       C  0.13894522  0.87258558  0.99168797     0.05700
C1979       C  0.12698692  0.87157661  0.01131094    -0.06600
C1980       C  0.13451016  0.88276828  0.02966941    -0.07300
C1981       C  0.15389757  0.89501653  0.02900484    -0.01900
C1982       C  0.16472348  0.89777659  0.00890360     0.05000
N1983       N  0.18479251  0.90964754  0.00743017     0.67500
H1984       H  0.16652488  0.88772920  0.97556521     0.16400
H1985       H  0.12571254  0.88089551  0.04485954     0.16100
N1986       N  0.10770394  0.85852949  0.01323253     0.75200
O1987       O  0.20262320  0.89969997  0.01041725    -0.38300
O1988       O  0.18491930  0.92853060  0.99893122    -0.38200
O1989       O  0.10854541  0.84046482  0.02332146    -0.38900
O1990       O  0.08937614  0.86722498  0.00951682    -0.39000
C1991       C  0.07271217  0.85608871  0.86195156    -0.11300
C1992       C  0.08299151  0.84888713  0.84279506     0.05700
C1993       C  0.09944456  0.83270789  0.84441635    -0.06600
C1994       C  0.10637464  0.82550330  0.86491124    -0.07300
C1995       C  0.09743971  0.83417237  0.88408845    -0.01900
C1996       C  0.07980885  0.84899187  0.88248202     0.05000
N1997       N  0.06904827  0.85717869  0.90142606     0.67500
H1998       H  0.05971534  0.86817533  0.86113454     0.16400
H1999       H  0.11976591  0.81385258  0.86574234     0.16100
N2000       N  0.10990409  0.82393467  0.82555869     0.75200
O2001       O  0.07395368  0.87596184  0.90848775    -0.38300
O2002       O  0.05142340  0.84836273  0.90749765    -0.38200
O2003       O  0.12857776  0.83087713  0.82026350    -0.38900
O2004       O  0.10315062  0.80605722  0.81774616    -0.39000
C2005       C  0.31817195  0.38826098  0.02944325    -0.11300
C2006       C  0.29574144  0.38985102  0.03406592     0.05700
C2007       C  0.28061156  0.38285746  0.01819162    -0.06600
C2008       C  0.28807139  0.37293688  0.99910208    -0.07300
C2009       C  0.31046694  0.36973320  0.99520323    -0.01900
C2010       C  0.32563741  0.37857394  0.01011377     0.05000
N2011       N  0.34860908  0.37721553  0.00636807     0.67500
H2012       H  0.33005385  0.39395193  0.04122656     0.16400
H2013       H  0.27605357  0.36671861  0.98772422     0.16100
N2014       N  0.25759367  0.38390263  0.02188821     0.75200
O2015       O  0.35797960  0.39241105  0.99594476    -0.38300
O2016       O  0.35994819  0.36396221  0.01744675    -0.38200
O2017       O  0.24633379  0.39790837  0.01167612    -0.38900
O2018       O  0.24813860  0.36808829  0.03128149    -0.39000
C2019       C  0.35900795  0.37360837  0.16195161    -0.11300
C2020       C  0.37728191  0.38308618  0.15178119     0.05700
C2021       C  0.37389949  0.39965641  0.13601585    -0.06600
C2022       C  0.35261903  0.40499133  0.12948964    -0.07300
C2023       C  0.33440905  0.39392801  0.13815320    -0.01900
C2024       C  0.33776417  0.37869149  0.15522128     0.05000
N2025       N  0.31993709  0.36759431  0.16542766     0.67500
H2026       H  0.36115206  0.36100031  0.17430009     0.16400
H2027       H  0.35048262  0.41706836  0.11663134     0.16100
N2028       N  0.39182448  0.41075083  0.12595656     0.75200
O2029       O  0.31489864  0.34855342  0.15917346    -0.38300
O2030       O  0.31326395  0.37419473  0.18370997    -0.38200
O2031       O  0.39739223  0.40567206  0.10683822    -0.38900
O2032       O  0.39873556  0.42841518  0.13410206    -0.39000
C2033       C  0.37511911  0.26424144  0.12358312    -0.11300
C2034       C  0.38889846  0.24586190  0.12215376     0.05700
C2035       C  0.40890997  0.24616589  0.13378187    -0.06600
C2036       C  0.41526959  0.26509684  0.14504849    -0.07300
C2037       C  0.40245344  0.28414456  0.14453590    -0.01900
C2038       C  0.38179207  0.28334852  0.13435168     0.05000
N2039       N  0.36761446  0.30198288  0.13422252     0.67500
H2040       H  0.35956347  0.26436234  0.11514629     0.16400
H2041       H  0.43119633  0.26542005  0.15277363     0.16100
N2042       N  0.42376868  0.22809490  0.13310292     0.75200
O2043       O  0.36806120  0.31505953  0.11823837    -0.38300
O2044       O  0.35146052  0.30231221  0.14696423    -0.38200
O2045       O  0.43953076  0.22860773  0.11987542    -0.38900
O2046       O  0.42421402  0.21464363  0.14877467    -0.39000
C2047       C  0.49439537  0.38936092  0.23914213    -0.11300
C2048       C  0.50575939  0.37269308  0.25017507     0.05700
C2049       C  0.50036072  0.35058457  0.24562652    -0.06600
C2050       C  0.48494845  0.34573068  0.22936703    -0.07300
C2051       C  0.47461998  0.36248784  0.21740688    -0.01900
C2052       C  0.47898028  0.38452341  0.22301592     0.05000
N2053       N  0.46771749  0.40227537  0.21271211     0.67500
H2054       H  0.49789292  0.40644714  0.24260677     0.16400
H2055       H  0.48157935  0.32867586  0.22563426     0.16100
N2056       N  0.51007267  0.33285912  0.25747236     0.75200
O2057       O  0.44942426  0.40821302  0.22006689    -0.38300
O2058       O  0.47792695  0.41480808  0.19986652    -0.38200
O2059       O  0.49947791  0.32394189  0.27274962    -0.38900
O2060       O  0.52623356  0.32291759  0.24944937    -0.39000
C2061       C  0.63277267  0.39620619  0.52859400    -0.11300
C2062       C  0.65446244  0.40374319  0.52881366     0.05700
C2063       C  0.66681445  0.40260572  0.50947464    -0.06600
C2064       C  0.65815699  0.39202322  0.49126903    -0.07300
C2065       C  0.63755092  0.38186045  0.49199754    -0.01900
C2066       C  0.62423957  0.38524450  0.51046840     0.05000
N2067       N  0.60267338  0.37642181  0.51182582     0.67500
H2068       H  0.62283212  0.39739838  0.54315156     0.16400
H2069       H  0.66858212  0.39007250  0.47714255     0.16100
N2070       N  0.68911823  0.40943901  0.50881157     0.75200
O2071       O  0.59977952  0.35808430  0.52099934    -0.38300
O2072       O  0.58656255  0.38904373  0.50908471    -0.38200
O2073       O  0.70401850  0.39543240  0.51177927    -0.38900
O2074       O  0.69387560  0.42789526  0.50073771    -0.39000
C2075       C  0.58679897  0.33841300  0.34850536    -0.11300
C2076       C  0.57210992  0.35609697  0.34875816     0.05700
C2077       C  0.56478320  0.36405025  0.36910585    -0.06600
C2078       C  0.57366163  0.35559224  0.38842349    -0.07300
C2079       C  0.58963708  0.33907274  0.38807596    -0.01900
C2080       C  0.59548943  0.32979526  0.36782362     0.05000
N2081       N  0.61133890  0.31266329  0.36633357     0.67500
H2082       H  0.59241315  0.33180451  0.33311834     0.16400
H2083       H  0.56863196  0.36270460  0.40378938     0.16100
N2084       N  0.54941226  0.38162176  0.37056197     0.75200
O2085       O  0.60504622  0.29320777  0.36324413    -0.38300
O2086       O  0.63111772  0.31751431  0.36319204    -0.38200
O2087       O  0.52951533  0.37724868  0.37363092    -0.38900
O2088       O  0.55618333  0.40087731  0.37388855    -0.39000
C2089       C  0.09462349  0.77162411  0.11437845    -0.11300
C2090       C  0.08699943  0.75103786  0.12132331     0.05700
C2091       C  0.07306295  0.75014467  0.13970837    -0.06600
C2092       C  0.06498700  0.76969341  0.14877506    -0.07300
C2093       C  0.07048062  0.79023630  0.13985384    -0.01900
C2094       C  0.08654395  0.79106407  0.12331834     0.05000
N2095       N  0.09395405  0.81144967  0.11440812     0.67500
H2096       H  0.10587078  0.77279450  0.10078610     0.16400
H2097       H  0.05308186  0.76865113  0.16180296     0.16100
N2098       N  0.06559439  0.72969231  0.14838303     0.75200
O2099       O  0.11151526  0.81967673  0.12135961    -0.38300
O2100       O  0.08624994  0.81804656  0.09646793    -0.38200
O2101       O  0.07473856  0.72186385  0.16511541    -0.38900
O2102       O  0.04711419  0.72249885  0.14283575    -0.39000
C2103       C  0.13522775  0.75117223  0.99014916    -0.11300
C2104       C  0.11856865  0.76258995  0.97919993     0.05700
C2105       C  0.09662444  0.75709378  0.98397598    -0.06600
C2106       C  0.09189746  0.74171519  0.00034156    -0.07300
C2107       C  0.10853217  0.73156463  0.01246691    -0.01900
C2108       C  0.13048666  0.73587623  0.00663715     0.05000
N2109       N  0.14823641  0.72528878  0.01752699     0.67500
H2110       H  0.15222116  0.75483055  0.98660591     0.16400
H2111       H  0.07489373  0.73849597  0.00423601     0.16100
N2112       N  0.07883293  0.76734898  0.97284418     0.75200
O2113       O  0.15656234  0.70833049  0.00921867    -0.38300
O2114       O  0.15868875  0.73557451  0.03196772    -0.38200
O2115       O  0.06997491  0.75756576  0.95706469    -0.38900
O2116       O  0.06888404  0.78302310  0.98183705    -0.39000
C2117       C  0.21654240  0.49315070  0.10608414    -0.11300
C2118       C  0.20723444  0.49424841  0.12698294     0.05700
C2119       C  0.21352645  0.47841815  0.14266854    -0.06600
C2120       C  0.22799744  0.46159431  0.13697904    -0.07300
C2121       C  0.23667546  0.45996698  0.11585432    -0.01900
C2122       C  0.23118622  0.47638045  0.10043749     0.05000
N2123       N  0.23977167  0.47603070  0.07880776     0.67500
H2124       H  0.21207738  0.50518976  0.09378787     0.16400
H2125       H  0.23201653  0.44933466  0.14921312     0.16100
N2126       N  0.20450187  0.47833572  0.16412440     0.75200
O2127       O  0.22900115  0.46687855  0.06385536    -0.38300
O2128       O  0.25525546  0.48875320  0.07384804    -0.38200
O2129       O  0.18897205  0.46545715  0.16851840    -0.38900
O2130       O  0.21521063  0.48683876  0.17949218    -0.39000
C2131       C  0.12965081  0.59823565  0.08261910    -0.11300
C2132       C  0.14418481  0.59766734  0.10027281     0.05700
C2133       C  0.15119839  0.61777845  0.10938078    -0.06600
C2134       C  0.14235719  0.63761757  0.10185540    -0.07300
C2135       C  0.12666132  0.63807938  0.08518928    -0.01900
C2136       C  0.12100615  0.61809130  0.07491948     0.05000
N2137       N  0.10569658  0.61739812  0.05736805     0.67500
H2138       H  0.12423728  0.58304489  0.07521874     0.16400
H2139       H  0.14720206  0.65271219  0.10981042     0.16100
N2140       N  0.16611039  0.61839493  0.12728551     0.75200
O2141       O  0.11260464  0.61776568  0.03800794    -0.38300
O2142       O  0.08627478  0.61158643  0.06107253    -0.38200
O2143       O  0.18571006  0.62378317  0.12394086    -0.38900
O2144       O  0.15883032  0.61832182  0.14650496    -0.39000
C2145       C  0.58529961  0.25903039  0.63128188    -0.11300
C2146       C  0.56951580  0.24468339  0.62289084     0.05700
C2147       C  0.54743872  0.24770959  0.62889129    -0.06600
C2148       C  0.54149732  0.26548508  0.64195540    -0.07300
C2149       C  0.55702268  0.28084952  0.64895744    -0.01900
C2150       C  0.57928606  0.27708245  0.64406803     0.05000
N2151       N  0.59594389  0.29176259  0.65130177     0.67500
H2152       H  0.60234901  0.25684594  0.62706114     0.16400
H2153       H  0.52432287  0.26795370  0.64547186     0.16100
N2154       N  0.53069985  0.23314422  0.62159103     0.75200
O2155       O  0.60464068  0.28874329  0.66970772    -0.38300
O2156       O  0.60495624  0.30452091  0.63778996    -0.38200
O2157       O  0.52410199  0.21815018  0.63419702    -0.38900
O2158       O  0.51911701  0.23854231  0.60542656    -0.39000
C2159       C  0.63149520  0.26309718  0.50064964    -0.11300
C2160       C  0.61468890  0.27066534  0.48698722     0.05700
C2161       C  0.59363416  0.26148942  0.48943879    -0.06600
C2162       C  0.58984490  0.24529654  0.50531562    -0.07300
C2163       C  0.60646321  0.23826617  0.51951418    -0.01900
C2164       C  0.62758159  0.24737983  0.51695090     0.05000
N2165       N  0.64524119  0.24125030  0.53091964     0.67500
H2166       H  0.64774999  0.27002791  0.49924647     0.16400
H2167       H  0.57347180  0.23872929  0.50699196     0.16100
N2168       N  0.57579831  0.26849791  0.47612476     0.75200
O2169       O  0.65856668  0.22680490  0.52465094    -0.38300
O2170       O  0.65055603  0.25380793  0.54633959    -0.38200
O2171       O  0.57022474  0.25699235  0.46000941    -0.38900
O2172       O  0.56280034  0.28283237  0.48327363    -0.39000
C2173       C  0.63512159  0.09930787  0.58335259    -0.11300
C2174       C  0.65021931  0.10023299  0.60053273     0.05700
C2175       C  0.65741679  0.12109792  0.60763378    -0.06600
C2176       C  0.64768261  0.14017914  0.59927659    -0.07300
C2177       C  0.63110388  0.13914155  0.58351735    -0.01900
C2178       C  0.62573238  0.11841482  0.57466617     0.05000
N2179       N  0.60982425  0.11621114  0.55779462     0.67500
H2180       H  0.62974831  0.08353905  0.57720822     0.16400
H2181       H  0.65250157  0.15590561  0.60595954     0.16100
N2182       N  0.67357423  0.12333734  0.62426490     0.75200
O2183       O  0.61610294  0.11474051  0.53827963    -0.38300
O2184       O  0.59061867  0.11055362  0.56266234    -0.38200
O2185       O  0.69276968  0.12866160  0.61900949    -0.38900
O2186       O  0.66762746  0.12532478  0.64382038    -0.39000
C2187       C  0.98201807  0.87744344  0.72346119    -0.11300
C2188       C  0.97899393  0.85507146  0.71878092     0.05700
C2189       C  0.99169344  0.83951821  0.73035048    -0.06600
C2190       C  0.00768471  0.84661259  0.74511540    -0.07300
C2191       C  0.01158039  0.86904692  0.74879135    -0.01900
C2192       C  0.99802405  0.88452907  0.73818596     0.05000
N2193       N  0.00091396  0.90756981  0.74125171     0.67500
H2194       H  0.97239212  0.88976791  0.71497824     0.16400
H2195       H  0.01770185  0.83432372  0.75318903     0.16100
N2196       N  0.98951545  0.81651479  0.72651824     0.75200
O2197       O  0.01289799  0.91819416  0.72824382    -0.38300
O2198       O  0.98801021  0.91781825  0.75358480    -0.38200
O2199       O  0.00243491  0.80720858  0.71347865    -0.38900
O2200       O  0.97857458  0.80498191  0.73967914    -0.39000
C2201       C  0.88962007  0.77651489  0.63918619    -0.11300
C2202       C  0.91037765  0.77504974  0.64891682     0.05700
C2203       C  0.92174563  0.75493699  0.64770979    -0.06600
C2204       C  0.91307529  0.73759482  0.63552206    -0.07300
C2205       C  0.89349539  0.73996601  0.62371469    -0.01900
C2206       C  0.88128267  0.75943746  0.62640179     0.05000
N2207       N  0.86113833  0.76289164  0.61515835     0.67500
H2208       H  0.88045902  0.79169477  0.63998453     0.16400
H2209       H  0.92266993  0.72274938  0.63402984     0.16100
N2210       N  0.94266076  0.75212103  0.65766323     0.75200
O2211       O  0.84340477  0.76004045  0.62522157    -0.38300
O2212       O  0.86112294  0.77383120  0.59765742    -0.38200
O2213       O  0.94410915  0.74116138  0.67508679    -0.38900
O2214       O  0.95964479  0.75555630  0.64653160    -0.39000
C2215       C  0.74414683  0.97322172  0.62971209    -0.11300
C2216       C  0.74937527  0.97160229  0.60746512     0.05700
C2217       C  0.74009415  0.98707412  0.59292652    -0.06600
C2218       C  0.72446324  0.00213534  0.60046276    -0.07300
C2219       C  0.71835047  0.00290740  0.62252856    -0.01900
C2220       C  0.72915001  0.98881401  0.63736808     0.05000
N2221       N  0.72440165  0.98930502  0.66014017     0.67500
H2222       H  0.75140099  0.96190826  0.64133545     0.16400
H2223       H  0.71684951  0.01319271  0.58882443     0.16100
N2224       N  0.74587108  0.98746932  0.57038824     0.75200
O2225       O  0.71094749  0.97573833  0.66797996    -0.38300
O2226       O  0.73716982  0.99935485  0.67278337    -0.38200
O2227       O  0.73277828  0.97978736  0.55649810    -0.38900
O2228       O  0.76114762  0.99987043  0.56413658    -0.39000
C2229       C  0.84260475  0.88086733  0.64182308    -0.11300
C2230       C  0.84407621  0.89708801  0.62555751     0.05700
C2231       C  0.86506724  0.90485500  0.61971119    -0.06600
C2232       C  0.88381300  0.89528206  0.62891257    -0.07300
C2233       C  0.88233819  0.87820802  0.64428124    -0.01900
C2234       C  0.86133078  0.87155351  0.65128336     0.05000
N2235       N  0.85858035  0.85439649  0.66697055     0.67500
H2236       H  0.82672529  0.87476489  0.64681301     0.16400
H2237       H  0.89972233  0.90087239  0.62344696     0.16100
N2238       N  0.86781509  0.92161913  0.60361906     0.75200
O2239       O  0.85510628  0.85929064  0.68662115    -0.38300
O2240       O  0.85467362  0.83514493  0.66055058    -0.38200
O2241       O  0.87190537  0.94097787  0.60959214    -0.38900
O2242       O  0.87099073  0.91629142  0.58403004    -0.39000
C2243       C  0.83818477  0.89223762  0.52391139    -0.11300
C2244       C  0.81723119  0.90168044  0.52376163     0.05700
C2245       C  0.80480571  0.90078797  0.50441212    -0.06600
C2246       C  0.81238618  0.88844800  0.48678581    -0.07300
C2247       C  0.83241757  0.87722362  0.48774436    -0.01900
C2248       C  0.84592624  0.88021552  0.50611036     0.05000
N2249       N  0.86670838  0.86971745  0.50781597     0.67500
H2250       H  0.84817125  0.89302396  0.53848810     0.16400
H2251       H  0.80199481  0.88685719  0.47256186     0.16100
N2252       N  0.78381167  0.91091248  0.50284390     0.75200
O2253       O  0.88377915  0.88081352  0.50448963    -0.38300
O2254       O  0.86815380  0.85145349  0.51746898    -0.38200
O2255       O  0.78252180  0.93076915  0.49710251    -0.38900
O2256       O  0.76694436  0.89907756  0.50213262    -0.39000
C2257       C  0.01995362  0.65422904  0.09015600    -0.11300
C2258       C  0.02325760  0.67696960  0.08769132     0.05700
C2259       C  0.00754537  0.69147054  0.09644051    -0.06600
C2260       C  0.99042270  0.68317950  0.10907208    -0.07300
C2261       C  0.98814677  0.66056931  0.11295437    -0.01900
C2262       C  0.00254402  0.64594325  0.10250944     0.05000
N2263       N  0.00063622  0.62274542  0.10535834     0.67500
H2264       H  0.03157372  0.64271019  0.08336470     0.16400
H2265       H  0.97906790  0.69468048  0.11634109     0.16100
N2266       N  0.00888899  0.71467777  0.09322345     0.75200
O2267       O  0.98961261  0.61178324  0.09186630    -0.38300
O2268       O  0.01350539  0.61290536  0.11814328    -0.38200
O2269       O  0.99648835  0.72367338  0.07941120    -0.38900
O2270       O  0.01782700  0.72638231  0.10759101    -0.39000
C2271       C  0.86404575  0.60184848  0.15673610    -0.11300
C2272       C  0.88344835  0.59889260  0.14483006     0.05700
C2273       C  0.88280377  0.58546585  0.12608261    -0.06600
C2274       C  0.86293543  0.57653361  0.11908564    -0.07300
C2275       C  0.84332314  0.58081832  0.13013450    -0.01900
C2276       C  0.84413550  0.59306614  0.14956699     0.05000
N2277       N  0.82495928  0.59673930  0.16225920     0.67500
H2278       H  0.86407626  0.61179953  0.17136374     0.16400
H2279       H  0.86275601  0.56703952  0.10415241     0.16100
N2280       N  0.90192590  0.58129782  0.11343511     0.75200
O2281       O  0.82051410  0.58372911  0.17767136    -0.38300
O2282       O  0.81564848  0.61519520  0.16142976    -0.38200
O2283       O  0.91251447  0.56381950  0.11665339    -0.38900
O2284       O  0.90499156  0.59199740  0.09605961    -0.39000
C2285       C  0.73319234  0.48060529  0.13923528    -0.11300
C2286       C  0.71999417  0.47138275  0.12291914     0.05700
C2287       C  0.72407726  0.47735551  0.10097717    -0.06600
C2288       C  0.74025501  0.49284547  0.09600372    -0.07300
C2289       C  0.75221649  0.50336943  0.11244300    -0.01900
C2290       C  0.74890913  0.49665791  0.13429659     0.05000
N2291       N  0.76070145  0.50648143  0.15182341     0.67500
H2292       H  0.73046509  0.47632309  0.15617865     0.16400
H2293       H  0.74239626  0.49771339  0.07912707     0.16100
N2294       N  0.71106264  0.46900864  0.08355492     0.75200
O2295       O  0.75270763  0.52296421  0.16131471    -0.38300
O2296       O  0.77570394  0.49573015  0.16106938    -0.38200
O2297       O  0.69545072  0.48040831  0.07628551    -0.38900
O2298       O  0.71795875  0.45298973  0.07256589    -0.39000
C2299       C  0.63900231  0.42970195  0.22276934    -0.11300
C2300       C  0.64412683  0.41350110  0.20741400     0.05700
C2301       C  0.63694010  0.39173443  0.21137202    -0.06600
C2302       C  0.62318311  0.38722957  0.22914561    -0.07300
C2303       C  0.61620354  0.40404887  0.24303649    -0.01900
C2304       C  0.62513412  0.42525456  0.24031573     0.05000
N2305       N  0.61970032  0.44274122  0.25477249     0.67500
H2306       H  0.64461624  0.44644285  0.22043593     0.16400
H2307       H  0.61686032  0.37071485  0.23125364     0.16100
N2308       N  0.64253175  0.37420167  0.19702947     0.75200
O2309       O  0.63165014  0.44626866  0.27113730    -0.38300
O2310       O  0.60657275  0.45742119  0.24850369    -0.38200
O2311       O  0.65818185  0.36166437  0.20196706    -0.38900
O2312       O  0.62902450  0.36822093  0.18270366    -0.39000
C2313       C  0.64153272  0.34264963  0.09531352    -0.11300
C2314       C  0.62125091  0.34414113  0.08477220     0.05700
C2315       C  0.61169761  0.36508091  0.08192649    -0.06600
C2316       C  0.62192408  0.38367278  0.09048283    -0.07300
C2317       C  0.64161761  0.38210580  0.10208381    -0.01900
C2318       C  0.65184809  0.36132827  0.10379387     0.05000
N2319       N  0.67233159  0.35869640  0.11463114     0.67500
H2320       H  0.64922792  0.32673400  0.09748766     0.16400
H2321       H  0.61367566  0.39937679  0.08892081     0.16100
N2322       N  0.59062884  0.36763439  0.07224975     0.75200
O2323       O  0.67270780  0.35235846  0.13422406    -0.38300
O2324       O  0.68964114  0.35807686  0.10351560    -0.38200
O2325       O  0.57419865  0.36995890  0.08441934    -0.38900
O2326       O  0.58926036  0.37308717  0.05244724    -0.39000
C2327       C  0.48349743  0.31261105  0.09824741    -0.11300
C2328       C  0.48470360  0.33335847  0.10805501     0.05700
C2329       C  0.50229755  0.34728308  0.10280609    -0.06600
C2330       C  0.51938940  0.33933471  0.08990667    -0.07300
C2331       C  0.51924213  0.31771325  0.08194097    -0.01900
C2332       C  0.50037057  0.30479688  0.08505720     0.05000
N2333       N  0.49868183  0.28314092  0.07635779     0.67500
H2334       H  0.46973266  0.30191427  0.10164188     0.16400
H2335       H  0.53356053  0.34970898  0.08738204     0.16100
N2336       N  0.50415447  0.36866242  0.11207469     0.75200
O2337       O  0.50455755  0.26690681  0.08776525    -0.38300
O2338       O  0.48741697  0.28000255  0.05943890    -0.38200
O2339       O  0.51661637  0.37155200  0.12818719    -0.38900
O2340       O  0.49764510  0.38506906  0.10128318    -0.39000
C2341       C  0.11340991  0.60284667  0.21397967    -0.11300
C2342       C  0.12012082  0.59433602  0.23416489     0.05700
C2343       C  0.13819319  0.57987954  0.23476171    -0.06600
C2344       C  0.14722284  0.57221389  0.21527388    -0.07300
C2345       C  0.13838956  0.57843083  0.19511026    -0.01900
C2346       C  0.12207086  0.59486182  0.19452116     0.05000
N2347       N  0.11300280  0.60265351  0.17444661     0.67500
H2348       H  0.09986795  0.61428570  0.21307663     0.16400
H2349       H  0.16013660  0.56005416  0.21604119     0.16100
N2350       N  0.14687406  0.57187247  0.25488020     0.75200
O2351       O  0.09608522  0.59354240  0.16699889    -0.38300
O2352       O  0.11780497  0.62171471  0.16794486    -0.38200
O2353       O  0.14310962  0.55230512  0.26054527    -0.38900
O2354       O  0.16242819  0.58209748  0.26370539    -0.39000
C2355       C  0.99978892  0.62921128  0.24835224    -0.11300
C2356       C  0.00924518  0.60822936  0.24711306     0.05700
C2357       C  0.00083420  0.59324022  0.23173469    -0.06600
C2358       C  0.98443932  0.59990295  0.21720974    -0.07300
C2359       C  0.97591977  0.62132596  0.21751940    -0.01900
C2360       C  0.98318172  0.63579448  0.23395553     0.05000
N2361       N  0.97475044  0.65757289  0.23566404     0.67500
H2362       H  0.00572625  0.64089127  0.26026764     0.16400
H2363       H  0.97899352  0.58836577  0.20492940     0.16100
N2364       N  0.00979880  0.57172450  0.22944538     0.75200
O2365       O  0.95977933  0.66145231  0.24922688    -0.38300
O2366       O  0.98550877  0.67335959  0.22776135    -0.38200
O2367       O  0.99893313  0.55537728  0.23594777    -0.38900
O2368       O  0.02565129  0.56878743  0.21666308    -0.39000
C2369       C  0.07143498  0.61694348  0.36343646    -0.11300
C2370       C  0.07683463  0.62953064  0.34499728     0.05700
C2371       C  0.08797285  0.64955368  0.34794656    -0.06600
C2372       C  0.09439651  0.65595708  0.36888433    -0.07300
C2373       C  0.09066078  0.64244205  0.38714532    -0.01900
C2374       C  0.07847933  0.62294355  0.38428440     0.05000
N2375       N  0.07435224  0.60820638  0.40196951     0.67500
H2376       H  0.06295818  0.60143806  0.36155159     0.16400
H2377       H  0.10359247  0.67105730  0.37057114     0.16100
N2378       N  0.09360881  0.66325557  0.32987148     0.75200
O2379       O  0.05602194  0.60867318  0.41131749    -0.38300
O2380       O  0.08647924  0.59163562  0.40445675    -0.38200
O2381       O  0.08216603  0.68000802  0.32584821    -0.38900
O2382       O  0.11247602  0.66183448  0.32175304    -0.39000
C2383       C  0.15048380  0.90948820  0.71764332    -0.11300
C2384       C  0.14282885  0.90235068  0.69731094     0.05700
C2385       C  0.12697209  0.88547464  0.69660997    -0.06600
C2386       C  0.11775202  0.87776284  0.71590959    -0.07300
C2387       C  0.12307764  0.88720030  0.73599404    -0.01900
C2388       C  0.14064286  0.90223420  0.73697122     0.05000
N2389       N  0.14752086  0.91170497  0.75710161     0.67500
H2390       H  0.16291323  0.92208607  0.71854782     0.16400
H2391       H  0.10470445  0.86582167  0.71481419     0.16100
N2392       N  0.11846672  0.87724149  0.67652466     0.75200
O2393       O  0.16340996  0.90329673  0.76721439    -0.38300
O2394       O  0.14138923  0.93085805  0.76190041    -0.38200
O2395       O  0.12223458  0.85755807  0.67146201    -0.38900
O2396       O  0.10243117  0.88691585  0.66783570    -0.39000
C2397       C  0.08726772  0.72887321  0.50890457    -0.11300
C2398       C  0.10333525  0.74410207  0.51500461     0.05700
C2399       C  0.12384943  0.74316265  0.50446835    -0.06600
C2400       C  0.12805426  0.72681079  0.48891199    -0.07300
C2401       C  0.11233694  0.71087721  0.48363300    -0.01900
C2402       C  0.09154527  0.71233977  0.49362365     0.05000
N2403       N  0.07455270  0.69707394  0.48872856     0.67500
H2404       H  0.07136693  0.72923155  0.51667131     0.16400
H2405       H  0.14406466  0.72623419  0.48139458     0.16100
N2406       N  0.14062570  0.75869485  0.50922075     0.75200
O2407       O  0.07165975  0.68074765  0.50110368    -0.38300
O2408       O  0.05954547  0.70269304  0.47576805    -0.38200
O2409       O  0.15594881  0.75328387  0.52189516    -0.38900
O2410       O  0.14296695  0.77518735  0.49695057    -0.39000
C2411       C  0.14513516  0.84140352  0.60116024    -0.11300
C2412       C  0.13015552  0.84207889  0.58380468     0.05700
C2413       C  0.12595701  0.86256731  0.57371097    -0.06600
C2414       C  0.13477803  0.88184826  0.58245525    -0.07300
C2415       C  0.14829782  0.88134368  0.60090747    -0.01900
C2416       C  0.15436482  0.86066156  0.60961399     0.05000
N2417       N  0.16883389  0.85885309  0.62781880     0.67500
H2418       H  0.14902840  0.82588468  0.60894766     0.16400
H2419       H  0.13034881  0.89745063  0.57513059     0.16100
N2420       N  0.11206178  0.86432825  0.55510269     0.75200
O2421       O  0.16115035  0.85883099  0.64687713    -0.38300
O2422       O  0.18817913  0.85244381  0.62479558    -0.38200
O2423       O  0.09286025  0.87146486  0.55735144    -0.38900
O2424       O  0.12033367  0.86342401  0.53630620    -0.39000
C2425       C  0.98878523  0.81495093  0.59567679    -0.11300
C2426       C  0.98996526  0.83366219  0.60900983     0.05700
C2427       C  0.00939886  0.84617139  0.60877802    -0.06600
C2428       C  0.02770027  0.83848769  0.59743459    -0.07300
C2429       C  0.02706702  0.81869123  0.58582098    -0.01900
C2430       C  0.00703623  0.80740001  0.58414588     0.05000
N2431       N  0.00542983  0.78708609  0.57269652     0.67500
H2432       H  0.97401745  0.80514775  0.59532096     0.16400
H2433       H  0.04284435  0.84764855  0.59849657     0.16100
N2434       N  0.01118871  0.86627379  0.62054070     0.75200
O2435       O  0.00943044  0.76935385  0.58259036    -0.38300
O2436       O  0.99551000  0.78651991  0.55469254    -0.38200
O2437       O  0.02232216  0.86681373  0.63783360    -0.38900
O2438       O  0.00625718  0.88404233  0.61112895    -0.39000
C2439       C  0.58844152  0.21298637  0.99254245    -0.11300
C2440       C  0.60875095  0.21462025  0.98198769     0.05700
C2441       C  0.62243173  0.23255785  0.98725662    -0.06600
C2442       C  0.61591367  0.24778738  0.00312820    -0.07300
C2443       C  0.59586236  0.24575679  0.01406248    -0.01900
C2444       C  0.58194440  0.22816930  0.00838474     0.05000
N2445       N  0.56178720  0.22453171  0.01953702     0.67500
H2446       H  0.57763601  0.19935234  0.98897494     0.16400
H2447       H  0.62692119  0.26109883  0.00724776     0.16100
N2448       N  0.64342227  0.23510284  0.97746151     0.75200
O2449       O  0.54406467  0.22970716  0.01037930    -0.38300
O2450       O  0.56144185  0.21216146  0.03607148    -0.38200
O2451       O  0.64567480  0.24830336  0.96173704    -0.38900
O2452       O  0.66012439  0.22839643  0.98752347    -0.39000
C2453       C  0.62175171  0.10268638  0.71878816    -0.11300
C2454       C  0.62286738  0.08927064  0.73738851     0.05700
C2455       C  0.63832516  0.07197366  0.73785745    -0.06600
C2456       C  0.65032688  0.06702211  0.71911181    -0.07300
C2457       C  0.64704212  0.07874887  0.69972265    -0.01900
C2458       C  0.63359282  0.09756083  0.70001181     0.05000
N2459       N  0.63141669  0.11143607  0.68131633     0.67500
H2460       H  0.61060390  0.11649698  0.71828076     0.16400
H2461       H  0.66069614  0.05259512  0.71920758     0.16100
N2462       N  0.64065569  0.05793516  0.75641325     0.75200
O2463       O  0.61552909  0.10862211  0.66853481    -0.38300
O2464       O  0.64126010  0.12962026  0.68114634    -0.38200
O2465       O  0.62974470  0.04039284  0.75739898    -0.38900
O2466       O  0.65694942  0.06030399  0.76876306    -0.39000
C2467       C  0.59628580  0.15432423  0.86489238    -0.11300
C2468       C  0.59174811  0.14226740  0.88400086     0.05700
C2469       C  0.57894415  0.12301787  0.88227182    -0.06600
C2470       C  0.57190582  0.11584221  0.86182124    -0.07300
C2471       C  0.57758235  0.12717270  0.84272833    -0.01900
C2472       C  0.58934699  0.14695189  0.84439299     0.05000
N2473       N  0.59448676  0.15960220  0.82540667     0.67500
H2474       H  0.60591310  0.16922248  0.86572331     0.16400
H2475       H  0.56294370  0.10052190  0.86083671     0.16100
N2476       N  0.57360577  0.10996158  0.90090460     0.75200
O2477       O  0.57939779  0.16850096  0.81449817    -0.38300
O2478       O  0.61388677  0.16043950  0.81855483    -0.38200
O2479       O  0.55443319  0.11061794  0.90837560    -0.38900
O2480       O  0.58583401  0.09408450  0.90602362    -0.39000
C2481       C  0.51151688  0.13206818  0.61362123    -0.11300
C2482       C  0.49116719  0.14094515  0.60784721     0.05700
C2483       C  0.49018417  0.15599635  0.59024158    -0.06600
C2484       C  0.50957453  0.16369087  0.58066945    -0.07300
C2485       C  0.53000880  0.15649638  0.58819600    -0.01900
C2486       C  0.53078564  0.13962239  0.60401818     0.05000
N2487       N  0.55107490  0.13045725  0.61112038     0.67500
H2488       H  0.51269411  0.12004113  0.62662106     0.16400
H2489       H  0.50863607  0.17638242  0.56829044     0.16100
N2490       N  0.46984031  0.16468183  0.58275700     0.75200
O2491       O  0.55933148  0.13672887  0.62887777    -0.38300
O2492       O  0.55784539  0.11296389  0.60251591    -0.38200
O2493       O  0.46458448  0.18409918  0.58750817    -0.38900
O2494       O  0.45958711  0.15481809  0.56789674    -0.39000
C2495       C  0.50154558  0.12743781  0.74562250    -0.11300
C2496       C  0.50916646  0.10564844  0.74588805     0.05700
C2497       C  0.49921668  0.09034400  0.73181106    -0.06600
C2498       C  0.48294330  0.09720982  0.71726019    -0.07300
C2499       C  0.47631910  0.11928414  0.71592784    -0.01900
C2500       C  0.48533537  0.13436096  0.73091030     0.05000
N2501       N  0.47900782  0.15692777  0.73088671     0.67500
H2502       H  0.50872886  0.13946470  0.75646083     0.16400
H2503       H  0.47627903  0.08520983  0.70607634     0.16100
N2504       N  0.50666207  0.06816520  0.73064793     0.75200
O2505       O  0.46579694  0.16367058  0.74513789    -0.38300
O2506       O  0.49020377  0.17067419  0.72028250    -0.38200
O2507       O  0.49577172  0.05319455  0.73983046    -0.38900
O2508       O  0.52090828  0.06309123  0.71670308    -0.39000
C2509       C  0.24233381  0.00691432  0.63236319    -0.11300
C2510       C  0.24699484  0.01056997  0.61021851     0.05700
C2511       C  0.23679779  0.99703122  0.59457100    -0.06600
C2512       C  0.22116997  0.98154981  0.60120068    -0.07300
C2513       C  0.21543716  0.97901967  0.62324281    -0.01900
C2514       C  0.22677633  0.99144430  0.63898061     0.05000
N2515       N  0.22147284  0.99000330  0.66160108     0.67500
H2516       H  0.25006730  0.01691198  0.64475611     0.16400
H2517       H  0.21287953  0.97195780  0.58884724     0.16100
N2518       N  0.24110711  0.99952497  0.57182364     0.75200
O2519       O  0.23336441  0.97860699  0.67405024    -0.38300
O2520       O  0.20865019  0.00394780  0.66975010    -0.38200
O2521       O  0.25276756  0.98547085  0.56225952    -0.38900
O2522       O  0.22952583  0.01248766  0.56065403    -0.39000
C2523       C  0.35857279  0.07373302  0.62403897    -0.11300
C2524       C  0.33941244  0.08305181  0.63255549     0.05700
C2525       C  0.34132215  0.09876991  0.64928807    -0.06600
C2526       C  0.36201678  0.10602030  0.65579398    -0.07300
C2527       C  0.38114167  0.09817519  0.64581662    -0.01900
C2528       C  0.37926426  0.08114441  0.63037544     0.05000
N2529       N  0.39805812  0.07149788  0.62051872     0.67500
H2530       H  0.35757918  0.06133792  0.61142676     0.16400
H2531       H  0.36297240  0.11881335  0.66800904     0.16100
N2532       N  0.32250880  0.10802568  0.65948586     0.75200
O2533       O  0.40634314  0.05456279  0.62905229    -0.38300
O2534       O  0.40259197  0.07618799  0.60099660    -0.38200
O2535       O  0.31635615  0.10053903  0.67766751    -0.38900
O2536       O  0.31567509  0.12655910  0.65327337    -0.39000
C2537       C  0.73168083  0.34741075  0.41955234    -0.11300
C2538       C  0.73154795  0.35779209  0.39906539     0.05700
C2539       C  0.71294049  0.35543194  0.38571319    -0.06600
C2540       C  0.69430612  0.34481355  0.39393106    -0.07300
C2541       C  0.69369041  0.33648780  0.41537763    -0.01900
C2542       C  0.71310699  0.33692224  0.42781127     0.05000
N2543       N  0.71388680  0.32843034  0.44952465     0.67500
H2544       H  0.74598910  0.34853717  0.42991461     0.16400
H2545       H  0.67973442  0.34443716  0.38389362     0.16100
N2546       N  0.71186556  0.36539183  0.36463134     0.75200
O2547       O  0.72057141  0.30909306  0.45268893    -0.38300
O2548       O  0.71291034  0.34152292  0.46537608    -0.38200
O2549       O  0.71287520  0.35345869  0.34790800    -0.38900
O2550       O  0.70514638  0.38489182  0.36282581    -0.39000
C2551       C  0.83965166  0.37117841  0.47250296    -0.11300
C2552       C  0.82486595  0.37093533  0.48990767     0.05700
C2553       C  0.80563928  0.38365698  0.48841364    -0.06600
C2554       C  0.80087117  0.39504603  0.46912178    -0.07300
C2555       C  0.81461942  0.39349254  0.45092179    -0.01900
C2556       C  0.83461019  0.38206821  0.45300280     0.05000
N2557       N  0.84969224  0.38076527  0.43530423     0.67500
H2558       H  0.85459271  0.36168178  0.47348509     0.16400
H2559       H  0.78549375  0.40377018  0.46787429     0.16100
N2560       N  0.79047184  0.38471119  0.50606742     0.75200
O2561       O  0.86479309  0.39477906  0.43393450    -0.38300
O2562       O  0.85132861  0.36306460  0.42482627    -0.38200
O2563       O  0.79121776  0.40080286  0.51892059    -0.38900
O2564       O  0.77359673  0.37284472  0.50566546    -0.39000
C2565       C  0.86523538  0.37526247  0.32665011    -0.11300
C2566       C  0.88432871  0.38065669  0.33816138     0.05700
C2567       C  0.88265218  0.39509565  0.35605206    -0.06600
C2568       C  0.86209944  0.40276868  0.36263049    -0.07300
C2569       C  0.84286995  0.39608306  0.35201880    -0.01900
C2570       C  0.84468853  0.38262052  0.33346019     0.05000
N2571       N  0.82584651  0.37586523  0.32153612     0.67500
H2572       H  0.86605528  0.36437401  0.31272669     0.16400
H2573       H  0.86115605  0.41314541  0.37692979     0.16100
N2574       N  0.90148528  0.40176631  0.36807603     0.75200
O2575       O  0.81971942  0.38704800  0.30530688    -0.38300
O2576       O  0.81865236  0.35661472  0.32400859    -0.38200
O2577       O  0.90950490  0.42054343  0.36469475    -0.38900
O2578       O  0.90674599  0.39136898  0.38510794    -0.39000
C2579       C  0.92296166  0.24220948  0.35137979    -0.11300
C2580       C  0.90142431  0.24130757  0.35921190     0.05700
C2581       C  0.88616909  0.25676292  0.35137810    -0.06600
C2582       C  0.89332431  0.27443180  0.33852924    -0.07300
C2583       C  0.91541467  0.27664174  0.33266411    -0.01900
C2584       C  0.92995920  0.25939720  0.33787890     0.05000
N2585       N  0.95223334  0.25975947  0.33094287     0.67500
H2586       H  0.93476104  0.22996159  0.35652159     0.16400
H2587       H  0.88172738  0.28716638  0.33418708     0.16100
N2588       N  0.86374177  0.25575331  0.35762891     0.75200
O2589       O  0.96650479  0.26862697  0.34281943    -0.38300
O2590       O  0.95818653  0.24744468  0.31557406    -0.38200
O2591       O  0.85696810  0.26752654  0.37307813    -0.38900
O2592       O  0.85014910  0.24660684  0.34516502    -0.39000
C2593       C  0.17333337  0.39353388  0.97582474    -0.11300
C2594       C  0.15739632  0.39975622  0.96051306     0.05700
C2595       C  0.13563902  0.39270858  0.96395869    -0.06600
C2596       C  0.13082177  0.37804921  0.98100422    -0.07300
C2597       C  0.14724561  0.37010813  0.99492810    -0.01900
C2598       C  0.16852443  0.37891708  0.99285318     0.05000
N2599       N  0.18567219  0.37283439  0.00748828     0.67500
H2600       H  0.19004510  0.39905164  0.97392626     0.16400
H2601       H  0.11426872  0.37197634  0.98258382     0.16100
N2602       N  0.11839626  0.39917827  0.94963332     0.75200
O2603       O  0.19932146  0.35845828  0.00176189    -0.38300
O2604       O  0.19018670  0.38526744  0.02325323    -0.38200
O2605       O  0.11199967  0.38609482  0.93508079    -0.38900
O2606       O  0.10656557  0.41534327  0.95463378    -0.39000
C2607       C  0.18862075  0.33535338  0.09750788    -0.11300
C2608       C  0.19118718  0.32267252  0.07857858     0.05700
C2609       C  0.21243662  0.31983068  0.07012210    -0.06600
C2610       C  0.22986566  0.33179856  0.07889301    -0.07300
C2611       C  0.22666642  0.34676316  0.09600202    -0.01900
C2612       C  0.20600019  0.34743887  0.10619030     0.05000
N2613       N  0.20178362  0.36159371  0.12421205     0.67500
H2614       H  0.17257951  0.33735077  0.10470865     0.16400
H2615       H  0.24570819  0.33048529  0.07112801     0.16100
N2616       N  0.21641052  0.30634731  0.05155394     0.75200
O2617       O  0.19465789  0.38071726  0.12069684    -0.38300
O2618       O  0.20015627  0.35345508  0.14307425    -0.38200
O2619       O  0.21841256  0.31516844  0.03302756    -0.38900
O2620       O  0.22280612  0.28685489  0.05435255    -0.39000
C2621       C  0.99864537  0.38646918  0.24050084    -0.11300
C2622       C  0.00788618  0.36932737  0.22839095     0.05700
C2623       C  0.00073343  0.34765471  0.23252139    -0.06600
C2624       C  0.98559450  0.34348707  0.24917973    -0.07300
C2625       C  0.97739203  0.36046634  0.26226382    -0.01900
C2626       C  0.98373115  0.38229651  0.25738141     0.05000
N2627       N  0.97567065  0.40044758  0.26965691     0.67500
H2628       H  0.00381516  0.40325981  0.23756387     0.16400
H2629       H  0.98080432  0.32662586  0.25232937     0.16100
N2630       N  0.00854867  0.32963977  0.21990785     0.75200
O2631       O  0.98644146  0.40718337  0.28583508    -0.38300
O2632       O  0.96119204  0.41266769  0.26143288    -0.38200
O2633       O  0.02202771  0.31639476  0.22826372    -0.38900
O2634       O  0.99830010  0.32414584  0.20294726    -0.39000
C2635       C  0.07406605  0.34443705  0.08958009    -0.11300
C2636       C  0.08647448  0.32510511  0.09091457     0.05700
C2637       C  0.08761512  0.31399016  0.11115868    -0.06600
C2638       C  0.07934508  0.32403291  0.12993358    -0.07300
C2639       C  0.06925918  0.34468209  0.12886575    -0.01900
C2640       C  0.06541246  0.35422268  0.10822817     0.05000
N2641       N  0.05527737  0.37521162  0.10608361     0.67500
H2642       H  0.07243660  0.35305078  0.07415143     0.16400
H2643       H  0.08170793  0.31604514  0.14559812     0.16100
N2644       N  0.09786213  0.29302890  0.11320028     0.75200
O2645       O  0.06706934  0.39215332  0.10580440    -0.38300
O2646       O  0.03583260  0.37643447  0.09941027    -0.38200
O2647       O  0.11654081  0.29168244  0.12177610    -0.38900
O2648       O  0.08635123  0.27594815  0.11151002    -0.39000
C2649       C  0.10294397  0.47014411  0.13243691    -0.11300
C2650       C  0.10244129  0.48764099  0.14714993     0.05700
C2651       C  0.08953937  0.48570861  0.16613183    -0.06600
C2652       C  0.07833599  0.46613939  0.17047182    -0.07300
C2653       C  0.08035883  0.44792767  0.15667713    -0.01900
C2654       C  0.09251488  0.45025559  0.13720627     0.05000
N2655       N  0.09518729  0.43247597  0.12237095     0.67500
H2656       H  0.11284397  0.47128579  0.11783222     0.16400
H2657       H  0.06923770  0.46474550  0.18556325     0.16100
N2658       N  0.08831229  0.50309432  0.18163795     0.75200
O2659       O  0.08541036  0.43331518  0.10429514    -0.38300
O2660       O  0.11164512  0.42015412  0.12432489    -0.38200
O2661       O  0.07253691  0.51638420  0.18077917    -0.38900
O2662       O  0.09983392  0.50214394  0.19866721    -0.39000
C2663       C  0.58644585  0.49367912  0.31887703    -0.11300
C2664       C  0.59979629  0.49128697  0.33740859     0.05700
C2665       C  0.59826961  0.47170870  0.34968371    -0.06600
C2666       C  0.58589353  0.45417827  0.34179616    -0.07300
C2667       C  0.57474588  0.45564117  0.32184215    -0.01900
C2668       C  0.57388479  0.47612521  0.31106978     0.05000
N2669       N  0.56190316  0.47894343  0.29128205     0.67500
H2670       H  0.58691416  0.50874227  0.30942995     0.16400
H2671       H  0.58609086  0.43881934  0.35078675     0.16100
N2672       N  0.60971893  0.46896631  0.36979312     0.75200
O2673       O  0.54275555  0.48653041  0.29206824    -0.38300
O2674       O  0.57192494  0.47888230  0.27333469    -0.38200
O2675       O  0.59968956  0.47227964  0.38742786    -0.38900
O2676       O  0.62719118  0.45799534  0.37009897    -0.39000
C2677       C  0.72603500  0.48996747  0.34622111    -0.11300
C2678       C  0.71205659  0.49841154  0.36225639     0.05700
C2679       C  0.71504848  0.49138581  0.38407785    -0.06600
C2680       C  0.73086248  0.47539792  0.38911319    -0.07300
C2681       C  0.74415553  0.46616963  0.37283509    -0.01900
C2682       C  0.74190501  0.47412287  0.35125925     0.05000
N2683       N  0.75537115  0.46609912  0.33406054     0.67500
H2684       H  0.72428480  0.49520141  0.32943878     0.16400
H2685       H  0.73229801  0.46977073  0.40579933     0.16100
N2686       N  0.70184755  0.49990235  0.40129522     0.75200
O2687       O  0.74803124  0.45158859  0.32141098    -0.38300
O2688       O  0.77230278  0.47662805  0.32877516    -0.38200
O2689       O  0.68568274  0.48907232  0.40816421    -0.38900
O2690       O  0.70532323  0.51896104  0.40848473    -0.39000
C2691       C  0.54721900  0.74753332  0.35722898    -0.11300
C2692       C  0.56964930  0.74418988  0.36067717     0.05700
C2693       C  0.58458471  0.75849697  0.35037412    -0.06600
C2694       C  0.57683094  0.77682997  0.33875137    -0.07300
C2695       C  0.55432690  0.78118759  0.33691573    -0.01900
C2696       C  0.53946179  0.76562578  0.34542987     0.05000
N2697       N  0.51639170  0.76868489  0.34374423     0.67500
H2698       H  0.53543246  0.73640912  0.36448290     0.16400
H2699       H  0.58858714  0.78839446  0.33217545     0.16100
N2700       N  0.60760032  0.75573310  0.35292404     0.75200
O2701       O  0.50592837  0.75865198  0.32914038    -0.38300
O2702       O  0.50613547  0.77723822  0.35938379    -0.38200
O2703       O  0.61870096  0.74847360  0.33721084    -0.38900
O2704       O  0.61720619  0.76499619  0.36857950    -0.39000
C2705       C  0.64092845  0.63643322  0.37860028    -0.11300
C2706       C  0.62757595  0.63605677  0.39712365     0.05700
C2707       C  0.62402977  0.61577322  0.40787416    -0.06600
C2708       C  0.63213330  0.59634972  0.39879811    -0.07300
C2709       C  0.64416833  0.59667945  0.37938281    -0.01900
C2710       C  0.64923059  0.61711475  0.36969611     0.05000
N2711       N  0.66061230  0.61854475  0.34945821     0.67500
H2712       H  0.64401517  0.65176244  0.37010494     0.16400
H2713       H  0.62837749  0.58082266  0.40664635     0.16100
N2714       N  0.61154740  0.61436971  0.42747526     0.75200
O2715       O  0.65015922  0.62423604  0.33267482    -0.38300
O2716       O  0.68110841  0.62051162  0.34958483    -0.38200
O2717       O  0.59205225  0.60773992  0.42664714    -0.38900
O2718       O  0.62131856  0.61465475  0.44557338    -0.39000
C2719       C  0.21708840  0.84354058  0.93386406    -0.11300
C2720       C  0.20247344  0.83531992  0.91824973     0.05700
C2721       C  0.20773405  0.83815461  0.89592271    -0.06600
C2722       C  0.22613755  0.85059080  0.88985850    -0.07300
C2723       C  0.23946655  0.86055424  0.90560046    -0.01900
C2724       C  0.23527024  0.85608646  0.92783617     0.05000
N2725       N  0.24892713  0.86469377  0.94465339     0.67500
H2726       H  0.21378277  0.84131973  0.95108526     0.16400
H2727       H  0.22928191  0.85344650  0.87269603     0.16100
N2728       N  0.19413818  0.82942717  0.87914306     0.75200
O2729       O  0.24300698  0.88165239  0.95480224    -0.38300
O2730       O  0.26403376  0.85292969  0.95238668    -0.38200
O2731       O  0.18067105  0.84185888  0.86961241    -0.38900
O2732       O  0.19912325  0.81132065  0.87056841    -0.39000
C2733       C  0.30628541  0.90554987  0.96813447    -0.11300
C2734       C  0.32014244  0.90360297  0.95007550     0.05700
C2735       C  0.34051805  0.89307876  0.95277938    -0.06600
C2736       C  0.34554948  0.88271876  0.97254070    -0.07300
C2737       C  0.33046805  0.88228931  0.98971911    -0.01900
C2738       C  0.31117450  0.89494844  0.98782782     0.05000
N2739       N  0.29590918  0.89653455  0.00534948     0.67500
H2740       H  0.29070223  0.91384419  0.96650120     0.16400
H2741       H  0.36069888  0.87359620  0.97379664     0.16100
N2742       N  0.35601739  0.89208270  0.93543453     0.75200
O2743       O  0.27894744  0.88478795  0.00508221    -0.38300
O2744       O  0.29649640  0.91313819  0.01755570    -0.38200
O2745       O  0.37187656  0.90528641  0.93545772    -0.38900
O2746       O  0.35710521  0.87499822  0.92392997    -0.39000
C2747       C  0.38652279  0.89461719  0.84645907    -0.11300
C2748       C  0.38571916  0.87639843  0.83254170     0.05700
C2749       C  0.36502018  0.86841711  0.82606569    -0.06600
C2750       C  0.34593798  0.87784114  0.83448432    -0.07300
C2751       C  0.34675715  0.89520810  0.84942976    -0.01900
C2752       C  0.36741468  0.90407300  0.85485732     0.05000
N2753       N  0.36951222  0.92170552  0.86997614     0.67500
H2754       H  0.40217542  0.90111300  0.85159185     0.16400
H2755       H  0.33033533  0.87079304  0.82995169     0.16100
N2756       N  0.36295218  0.84968880  0.81229158     0.75200
O2757       O  0.37255097  0.91741937  0.88986590    -0.38300
O2758       O  0.37350235  0.94077424  0.86296142    -0.38200
O2759       O  0.36114698  0.83088353  0.82078418    -0.38900
O2760       O  0.35788674  0.85237793  0.79253406    -0.39000
C2761       C  0.38892152  0.78112182  0.85010318    -0.11300
C2762       C  0.40798499  0.77813503  0.83779934     0.05700
C2763       C  0.41658796  0.75683715  0.83555410    -0.06600
C2764       C  0.40713213  0.73936677  0.84711560    -0.07300
C2765       C  0.38935220  0.74277369  0.86126744    -0.01900
C2766       C  0.37951823  0.76374456  0.86173705     0.05000
N2767       N  0.36074004  0.76807021  0.87483633     0.67500
H2768       H  0.38190379  0.79738686  0.85165813     0.16400
H2769       H  0.41500917  0.72345046  0.84642322     0.16100
N2770       N  0.43642704  0.75313369  0.82390042     0.75200
O2771       O  0.36309027  0.77732246  0.89304579    -0.38300
O2772       O  0.34206564  0.76752055  0.86617385    -0.38200
O2773       O  0.45447427  0.75508235  0.83362971    -0.38900
O2774       O  0.43580323  0.74395170  0.80552548    -0.39000
C2775       C  0.65885884  0.88421703  0.49415235    -0.11300
C2776       C  0.64118641  0.86971604  0.49144256     0.05700
C2777       C  0.62993101  0.86980973  0.47136243    -0.06600
C2778       C  0.63752467  0.88282816  0.45414626    -0.07300
C2779       C  0.65643568  0.89570262  0.45623665    -0.01900
C2780       C  0.66663812  0.89702950  0.47680620     0.05000
N2781       N  0.68610355  0.90955807  0.47988198     0.67500
H2782       H  0.66778715  0.88451692  0.50942978     0.16400
H2783       H  0.62919880  0.88182456  0.43856082     0.16100
N2784       N  0.61144369  0.85601640  0.46771706     0.75200
O2785       O  0.68489516  0.92828158  0.48849723    -0.38300
O2786       O  0.70443995  0.90024124  0.47837577    -0.38200
O2787       O  0.59252114  0.86381656  0.47011542    -0.38900
O2788       O  0.61385465  0.83831520  0.45738521    -0.39000
C2789       C  0.63606328  0.74974074  0.48602320    -0.11300
C2790       C  0.62006028  0.75832157  0.50001526     0.05700
C2791       C  0.59829311  0.75092576  0.49754964    -0.06600
C2792       C  0.59285372  0.73633311  0.48076201    -0.07300
C2793       C  0.60860954  0.72877873  0.46598195    -0.01900
C2794       C  0.63059361  0.73522084  0.46913666     0.05000
N2795       N  0.64762341  0.72730282  0.45533898     0.67500
H2796       H  0.65290345  0.75499130  0.48760406     0.16400
H2797       H  0.57593455  0.73143941  0.47891067     0.16100
N2798       N  0.58137192  0.75815006  0.51182419     0.75200
O2799       O  0.65386212  0.73885592  0.43941396    -0.38300
O2800       O  0.65940641  0.71157384  0.46177725    -0.38200
O2801       O  0.56756349  0.77196374  0.50507263    -0.38900
O2802       O  0.57740371  0.74729816  0.52891493    -0.39000
C2803       C  0.71866863  0.83584876  0.54939152    -0.11300
C2804       C  0.70175128  0.83249286  0.56441536     0.05700
C2805       C  0.70405890  0.84143032  0.58560710    -0.06600
C2806       C  0.72230115  0.85447545  0.59067545    -0.07300
C2807       C  0.73813629  0.85944799  0.57488615    -0.01900
C2808       C  0.73656284  0.84924004  0.55428601     0.05000
N2809       N  0.75242185  0.85304508  0.53765063     0.67500
H2810       H  0.71749002  0.82899432  0.53315780     0.16400
H2811       H  0.72316698  0.86210522  0.60658224     0.16100
N2812       N  0.68720120  0.83924566  0.60156524     0.75200
O2813       O  0.76984173  0.84199397  0.53767917    -0.38300
O2814       O  0.74670831  0.86291759  0.52047235    -0.38200
O2815       O  0.69059635  0.82772089  0.61835044    -0.38900
O2816       O  0.67142308  0.85257074  0.60139343    -0.39000
C2817       C  0.50796348  0.85024077  0.73408092    -0.11300
C2818       C  0.51430756  0.87242476  0.73311179     0.05700
C2819       C  0.50403201  0.88737761  0.74739799    -0.06600
C2820       C  0.48860303  0.87984488  0.76257542    -0.07300
C2821       C  0.48304051  0.85750873  0.76423553    -0.01900
C2822       C  0.49267514  0.84268012  0.74941680     0.05000
N2823       N  0.48831996  0.81967707  0.75054695     0.67500
H2824       H  0.51558432  0.83835465  0.72339936     0.16400
H2825       H  0.48143404  0.89162411  0.77367942     0.16100
N2826       N  0.50981620  0.91008219  0.74765644     0.75200
O2827       O  0.47552227  0.81117066  0.73686141    -0.38300
O2828       O  0.50091507  0.80745463  0.76144311    -0.38200
O2829       O  0.49757056  0.92381131  0.73824302    -0.38900
O2830       O  0.52355664  0.91675878  0.76144721    -0.39000
C2831       C  0.57604980  0.85052852  0.62069703    -0.11300
C2832       C  0.58885909  0.84740372  0.63948907     0.05700
C2833       C  0.60765195  0.83397374  0.63799409    -0.06600
C2834       C  0.61372329  0.82511588  0.61784755    -0.07300
C2835       C  0.60168520  0.82955131  0.59885216    -0.01900
C2836       C  0.58231089  0.84187631  0.60054137     0.05000
N2837       N  0.56878957  0.84578288  0.58196813     0.67500
H2838       H  0.56135140  0.86044533  0.62139697     0.16400
H2839       H  0.62874595  0.81570445  0.61688843     0.16100
N2840       N  0.62133517  0.82987931  0.65643088     0.75200
O2841       O  0.55367796  0.83243361  0.57761209    -0.38300
O2842       O  0.56881941  0.86447118  0.57304523    -0.38200
O2843       O  0.61959941  0.81189757  0.66654339    -0.38900
O2844       O  0.63818677  0.84145585  0.65917527    -0.39000
C2845       C  0.59255072  0.97077109  0.68519254    -0.11300
C2846       C  0.58677329  0.95468508  0.66993191     0.05700
C2847       C  0.59145432  0.95870697  0.64766523    -0.06600
C2848       C  0.60338319  0.97749449  0.64154021    -0.07300
C2849       C  0.61097436  0.99241836  0.65720946    -0.01900
C2850       C  0.60454248  0.98935267  0.67914844     0.05000
N2851       N  0.61064242  0.00455043  0.69575843     0.67500
H2852       H  0.58876212  0.96840985  0.70229609     0.16400
H2853       H  0.60784013  0.97967246  0.62457830     0.16100
N2854       N  0.58561870  0.94324744  0.63122323     0.75200
O2855       O  0.59724147  0.01915001  0.70150337    -0.38300
O2856       O  0.62669958  0.00018953  0.70791732    -0.38200
O2857       O  0.56822764  0.94602019  0.62053669    -0.38900
O2858       O  0.59975845  0.92990035  0.62435134    -0.39000
C2859       C  0.10590559  0.98738018  0.79264759    -0.11300
C2860       C  0.11331192  0.98989702  0.81413663     0.05700
C2861       C  0.10571930  0.97527269  0.83029842    -0.06600
C2862       C  0.09235845  0.95760287  0.82438786    -0.07300
C2863       C  0.08652629  0.95396653  0.80251114    -0.01900
C2864       C  0.09271946  0.96969480  0.78668324     0.05000
N2865       N  0.08705597  0.96732406  0.76422383     0.67500
H2866       H  0.11115777  0.99874673  0.78004822     0.16400
H2867       H  0.08780388  0.94582121  0.83686960     0.16100
N2868       N  0.11297258  0.97685804  0.85236135     0.75200
O2869       O  0.07054123  0.97727967  0.75688061    -0.38300
O2870       O  0.10103986  0.95990749  0.75107574    -0.38200
O2871       O  0.10043758  0.98493164  0.86652891    -0.38900
O2872       O  0.12962792  0.96624711  0.85837231    -0.39000
C2873       C  0.22459263  0.99692347  0.86710301    -0.11300
C2874       C  0.22116252  0.99912572  0.84454915     0.05700
C2875       C  0.23335648  0.98554416  0.83039065    -0.06600
C2876       C  0.24768343  0.96965359  0.83902524    -0.07300
C2877       C  0.25048997  0.96702839  0.86164059    -0.01900
C2878       C  0.23899106  0.98122664  0.87569122     0.05000
N2879       N  0.24042623  0.97891972  0.89881133     0.67500
H2880       H  0.21546590  0.00707545  0.87837197     0.16400
H2881       H  0.25636882  0.95896801  0.82789651     0.16100
N2882       N  0.23062023  0.98676753  0.80730409     0.75200
O2883       O  0.25293659  0.99142338  0.90937164    -0.38300
O2884       O  0.22589837  0.96822004  0.90882247    -0.38200
O2885       O  0.24493532  0.99634620  0.79596056    -0.38900
O2886       O  0.21722131  0.97408033  0.79812142    -0.39000
C2887       C  0.06894065  0.23777956  0.83758226    -0.11300
C2888       C  0.08702019  0.24023902  0.85151293     0.05700
C2889       C  0.09745379  0.26081321  0.85267333    -0.06600
C2890       C  0.08812646  0.27889628  0.84227494    -0.07300
C2891       C  0.06852750  0.27696563  0.83062822    -0.01900
C2892       C  0.05957910  0.25597353  0.82718012     0.05000
N2893       N  0.03965326  0.25313653  0.81541738     0.67500
H2894       H  0.06077419  0.22207423  0.83629498     0.16400
H2895       H  0.09547668  0.29481558  0.84462817     0.16100
N2896       N  0.11679779  0.26399829  0.86529469     0.75200
O2897       O  0.04027025  0.24624096  0.79607531    -0.38300
O2898       O  0.02177868  0.25292654  0.82561324    -0.38200
O2899       O  0.13508106  0.26376889  0.85584355    -0.38900
O2900       O  0.11531790  0.27239972  0.88399631    -0.39000
C2901       C  0.09180116  0.23444341  0.97575471    -0.11300
C2902       C  0.10856638  0.22792154  0.96149174     0.05700
C2903       C  0.12978797  0.23648469  0.96495113    -0.06600
C2904       C  0.13365749  0.25126038  0.98194661    -0.07300
C2905       C  0.11677945  0.25843683  0.99557940    -0.01900
C2906       C  0.09563935  0.24964909  0.99252132     0.05000
N2907       N  0.07791841  0.25576570  0.00636180     0.67500
H2908       H  0.07538870  0.22815256  0.97357161     0.16400
H2909       H  0.14996224  0.25794445  0.98383375     0.16100
N2910       N  0.14751673  0.23128108  0.95078373     0.75200
O2911       O  0.06503111  0.27076346  0.00032892    -0.38300
O2912       O  0.07231457  0.24307330  0.02165726    -0.38200
O2913       O  0.15281901  0.24473727  0.93602855    -0.38900
O2914       O  0.16075040  0.21636574  0.95621825    -0.39000
C2915       C  0.15818871  0.11532489  0.86000142    -0.11300
C2916       C  0.14921063  0.09488024  0.86580473     0.05700
C2917       C  0.13274985  0.09433554  0.88195606    -0.06600
C2918       C  0.12506227  0.11391105  0.89106704    -0.07300
C2919       C  0.13297227  0.13441999  0.88417904    -0.01900
C2920       C  0.15016661  0.13496442  0.86883353     0.05000
N2921       N  0.15944588  0.15526142  0.86169292     0.67500
H2922       H  0.17090932  0.11623373  0.84775640     0.16400
H2923       H  0.11187719  0.11300719  0.90281882     0.16100
N2924       N  0.12299906  0.07417213  0.88882573     0.75200
O2925       O  0.17569804  0.16298893  0.87169906    -0.38300
O2926       O  0.15475793  0.16259666  0.84301327    -0.38200
O2927       O  0.12868603  0.06577727  0.90677370    -0.38900
O2928       O  0.10543456  0.06799447  0.88001964    -0.39000
C2929       C  0.02538586  0.14310611  0.88270538    -0.11300
C2930       C  0.02667398  0.16528068  0.88903435     0.05700
C2931       C  0.00867357  0.17909981  0.88446560    -0.06600
C2932       C  0.99101192  0.17113096  0.87237624    -0.07300
C2933       C  0.99060851  0.14954767  0.86445205    -0.01900
C2934       C  0.00769256  0.13518786  0.87041620     0.05000
N2935       N  0.00846685  0.11322029  0.86241024     0.67500
H2936       H  0.03897608  0.13210954  0.88591826     0.16400
H2937       H  0.97773921  0.18231644  0.86849174     0.16100
N2938       N  0.00833123  0.20154422  0.89110677     0.75200
O2939       O  0.01656791  0.10961102  0.84386802    -0.38300
O2940       O  0.00561298  0.09740155  0.87542349    -0.38200
O2941       O  0.01101957  0.21642329  0.87700090    -0.38900
O2942       O  0.99998659  0.20641464  0.90924526    -0.39000
C2943       C  0.88351967  0.19083460  0.85090521    -0.11300
C2944       C  0.89987791  0.19434521  0.83520027     0.05700
C2945       C  0.90499413  0.21619356  0.82931473    -0.06600
C2946       C  0.89504217  0.23375128  0.84031771    -0.07300
C2947       C  0.88035597  0.23009912  0.85756748    -0.01900
C2948       C  0.87387921  0.20830219  0.86213002     0.05000
N2949       N  0.85829536  0.20343809  0.87879086     0.67500
H2950       H  0.87884316  0.17423187  0.85534352     0.16400
H2951       H  0.90032133  0.25032544  0.83652002     0.16100
N2952       N  0.92182814  0.22096399  0.81393004     0.75200
O2953       O  0.83851967  0.20083170  0.87365756    -0.38300
O2954       O  0.86488194  0.19674917  0.89713661    -0.38200
O2955       O  0.91679373  0.22928911  0.79575619    -0.38900
O2956       O  0.94134209  0.22208749  0.82042910    -0.39000
C2957       C  0.71708711  0.12797370  0.88878882    -0.11300
C2958       C  0.73254936  0.12445739  0.90531155     0.05700
C2959       C  0.72906501  0.13402230  0.92597420    -0.06600
C2960       C  0.70994520  0.14592009  0.92990998    -0.07300
C2961       C  0.69357258  0.14765062  0.91400337    -0.01900
C2962       C  0.69750090  0.13899242  0.89305922     0.05000
N2963       N  0.68137834  0.14018780  0.87626421     0.67500
H2964       H  0.71946996  0.12079457  0.87284235     0.16400
H2965       H  0.70712790  0.15218648  0.94616959     0.16100
N2966       N  0.74413889  0.13094815  0.94351949     0.75200
O2967       O  0.68214522  0.15571900  0.86263682    -0.38300
O2968       O  0.67013638  0.12339914  0.87196151    -0.38200
O2969       O  0.75603629  0.14678101  0.94933077    -0.38900
O2970       O  0.74150363  0.11496317  0.95638926    -0.39000
C2971       C  0.85810213  0.07401029  0.85469164    -0.11300
C2972       C  0.83893548  0.08563570  0.84955257     0.05700
C2973       C  0.84009658  0.10242638  0.83362940    -0.06600
C2974       C  0.86029616  0.10812321  0.82449500    -0.07300
C2975       C  0.87973867  0.09778105  0.83109856    -0.01900
C2976       C  0.87835534  0.07999257  0.84584659     0.05000
N2977       N  0.89736428  0.06818576  0.85253833     0.67500
H2978       H  0.85765986  0.06081876  0.86665446     0.16400
H2979       H  0.86085445  0.12178364  0.81306236     0.16100
N2980       N  0.82116994  0.11450364  0.82713098     0.75200
O2981       O  0.90614926  0.07267241  0.87057833    -0.38300
O2982       O  0.90190033  0.05026278  0.84336283    -0.38200
O2983       O  0.81795679  0.13336277  0.83492781    -0.38900
O2984       O  0.81095749  0.10880576  0.81021636    -0.39000
C2985       C  0.83755637  0.10079722  0.95122211    -0.11300
C2986       C  0.82052942  0.08542860  0.95246539     0.05700
C2987       C  0.81277352  0.07902581  0.97318217    -0.06600
C2988       C  0.81996796  0.09024146  0.99172502    -0.07300
C2989       C  0.83479169  0.10777983  0.99002851    -0.01900
C2990       C  0.84469495  0.11204551  0.96967188     0.05000
N2991       N  0.86018734  0.12935333  0.96686068     0.67500
H2992       H  0.84421426  0.10549442  0.93549733     0.16400
H2993       H  0.81255911  0.08631119  0.00731240     0.16100
N2994       N  0.79611636  0.06279164  0.97558185     0.75200
O2995       O  0.88025198  0.12476673  0.96598481    -0.38300
O2996       O  0.85373027  0.14789842  0.96027278    -0.38200
O2997       O  0.80119343  0.04392386  0.98244851    -0.38900
O2998       O  0.77635174  0.06863144  0.97577570    -0.39000
C2999       C  0.09362145  0.21736397  0.35281456    -0.11300
C3000       C  0.08014299  0.23589515  0.35374098     0.05700
C3001       C  0.06084542  0.23641500  0.34112665    -0.06600
C3002       C  0.05469312  0.21794543  0.32911246    -0.07300
C3003       C  0.06707286  0.19859175  0.32994714    -0.01900
C3004       C  0.08716490  0.19866815  0.34133149     0.05000
N3005       N  0.10071802  0.17959468  0.34232915     0.67500
H3006       H  0.10859198  0.21681054  0.36223923     0.16400
H3007       H  0.03925002  0.21825070  0.32047244     0.16100
N3008       N  0.04698170  0.25529325  0.34078197     0.75200
O3009       O  0.11586842  0.17735741  0.32860106    -0.38300
O3010       O  0.10090732  0.16807413  0.35946023    -0.38200
O3011       O  0.04730866  0.26785818  0.32439696    -0.38900
O3012       O  0.03113075  0.25633705  0.35386302    -0.39000
C3013       C  0.01493910  0.31001353  0.39474273    -0.11300
C3014       C  0.03432607  0.32120003  0.38986696     0.05700
C3015       C  0.03337072  0.33991859  0.37620354    -0.06600
C3016       C  0.01361017  0.34586112  0.36637471    -0.07300
C3017       C  0.99457277  0.33352132  0.36980898    -0.01900
C3018       C  0.99518110  0.31594073  0.38492448     0.05000
N3019       N  0.97605631  0.30363967  0.39029575     0.67500
H3020       H  0.01523124  0.29578600  0.40541715     0.16400
H3021       H  0.01350487  0.35957580  0.35505501     0.16100
N3022       N  0.05237940  0.35271133  0.37156185     0.75200
O3023       O  0.97501638  0.28366056  0.38508292    -0.38300
O3024       O  0.96347893  0.31077757  0.40491178    -0.38200
O3025       O  0.06182327  0.35063444  0.35341711    -0.38900
O3026       O  0.05665931  0.36913122  0.38326961    -0.39000
C3027       C  0.10157605  0.50347744  0.33051564    -0.11300
C3028       C  0.10819203  0.48966770  0.31350187     0.05700
C3029       C  0.10040922  0.49397862  0.29219730    -0.06600
C3030       C  0.08816569  0.51293980  0.28804044    -0.07300
C3031       C  0.08336352  0.52784980  0.30473326    -0.01900
C3032       C  0.08921669  0.52237899  0.32634604     0.05000
N3033       N  0.08298405  0.53594156  0.34423398     0.67500
H3034       H  0.10680343  0.50015957  0.34706819     0.16400
H3035       H  0.08349214  0.51657891  0.27138462     0.16100
N3036       N  0.10502184  0.47953138  0.27448560     0.75200
O3037       O  0.06533074  0.53202186  0.35408788    -0.38300
O3038       O  0.09688570  0.54847611  0.35286434    -0.38200
O3039       O  0.09093869  0.46548108  0.26901581    -0.38900
O3040       O  0.12029284  0.48415244  0.26146339    -0.39000
C3041       C  0.15464592  0.36375608  0.35830673    -0.11300
C3042       C  0.14595351  0.38343740  0.36640676     0.05700
C3043       C  0.13127489  0.38255965  0.38407609    -0.06600
C3044       C  0.12538093  0.36225942  0.39295111    -0.07300
C3045       C  0.13311822  0.34250850  0.38407764    -0.01900
C3046       C  0.14810381  0.34340219  0.36663090     0.05000
N3047       N  0.15620728  0.32392834  0.35656481     0.67500
H3048       H  0.16573855  0.36404606  0.34451322     0.16400
H3049       H  0.11361580  0.36200808  0.40617758     0.16100
N3050       N  0.12172289  0.40198053  0.39288734     0.75200
O3051       O  0.14674074  0.31663829  0.33981984    -0.38300
O3052       O  0.17530049  0.31749442  0.36092012    -0.38200
O3053       O  0.10237784  0.40692927  0.38776037    -0.38900
O3054       O  0.13023110  0.41066692  0.40946964    -0.39000
C3055       C  0.14478601  0.42048100  0.24778708    -0.11300
C3056       C  0.14719207  0.40634769  0.26570549     0.05700
C3057       C  0.13789742  0.38511766  0.26466727    -0.06600
C3058       C  0.12437214  0.37949956  0.24710028    -0.07300
C3059       C  0.11981330  0.39477260  0.23058106    -0.01900
C3060       C  0.13112470  0.41498090  0.23039961     0.05000
N3061       N  0.12828949  0.43048921  0.21308895     0.67500
H3062       H  0.15202796  0.43672023  0.24804501     0.16400
H3063       H  0.11623009  0.36369625  0.24719686     0.16100
N3064       N  0.14129890  0.36940599  0.28168299     0.75200
O3065       O  0.11610060  0.44693150  0.21592213    -0.38300
O3066       O  0.14158835  0.43050716  0.19739857    -0.38200
O3067       O  0.12640665  0.36601519  0.29548790    -0.38900
O3068       O  0.15663423  0.35570009  0.27992413    -0.39000
C3069       C  0.18634914  0.62154295  0.38919327    -0.11300
C3070       C  0.18946971  0.63861225  0.40424288     0.05700
C3071       C  0.21101207  0.64530260  0.40900125    -0.06600
C3072       C  0.22871323  0.63358456  0.40034702    -0.07300
C3073       C  0.22541770  0.61490485  0.38737167    -0.01900
C3074       C  0.20393749  0.60951368  0.38101269     0.05000
N3075       N  0.19947399  0.59109698  0.36734388     0.67500
H3076       H  0.16998743  0.61639816  0.38483660     0.16400
H3077       H  0.24507150  0.63805171  0.40539354     0.16100
N3078       N  0.21532085  0.66246814  0.42417435     0.75200
O3079       O  0.19513006  0.57278479  0.37598722    -0.38300
O3080       O  0.19440171  0.59436825  0.34767179    -0.38200
O3081       O  0.22106471  0.65759301  0.44333912    -0.38900
O3082       O  0.21851105  0.68169212  0.41717031    -0.39000
C3083       C  0.24492172  0.50428113  0.34431643    -0.11300
C3084       C  0.24760150  0.50654111  0.36696997     0.05700
C3085       C  0.23584512  0.49222730  0.38084567    -0.06600
C3086       C  0.22044026  0.47769302  0.37200008    -0.07300
C3087       C  0.21655825  0.47677858  0.34943393    -0.01900
C3088       C  0.22957931  0.48976850  0.33549703     0.05000
N3089       N  0.22599952  0.49015333  0.31250303     0.67500
H3090       H  0.25383191  0.51488027  0.33321520     0.16400
H3091       H  0.21096321  0.46747614  0.38299408     0.16100
N3092       N  0.23867542  0.49268533  0.40394322     0.75200
O3093       O  0.21263601  0.50379044  0.30459310    -0.38300
O3094       O  0.23958164  0.48093656  0.30009185    -0.38200
O3095       O  0.22481178  0.50251149  0.41556258    -0.38900
O3096       O  0.25162704  0.47922626  0.41278591    -0.39000
C3097       C  0.32353055  0.58985635  0.45592627    -0.11300
C3098       C  0.30092217  0.58649671  0.45324930     0.05700
C3099       C  0.28661310  0.59530935  0.46901015    -0.06600
C3100       C  0.29485229  0.60843691  0.48576692    -0.07300
C3101       C  0.31725026  0.61315497  0.48751264    -0.01900
C3102       C  0.33177969  0.60297445  0.47285108     0.05000
N3103       N  0.35472750  0.60697365  0.47385031     0.67500
H3104       H  0.33490375  0.58322825  0.44413689     0.16400
H3105       H  0.28340058  0.61559167  0.49718658     0.16100
N3106       N  0.26355852  0.59184988  0.46791641     0.75200
O3107       O  0.36673777  0.59385893  0.48436703    -0.38300
O3108       O  0.36331777  0.61995645  0.46027759    -0.38200
O3109       O  0.25489507  0.57773872  0.48027612    -0.38900
O3110       O  0.25164408  0.60607393  0.45879481    -0.39000
C3111       C  0.50735049  0.66218451  0.40007268    -0.11300
C3112       C  0.52780727  0.65375356  0.39410438     0.05700
C3113       C  0.52854988  0.63567858  0.37971995    -0.06600
C3114       C  0.50936730  0.62806869  0.36992663    -0.07300
C3115       C  0.48919826  0.63817369  0.37396490    -0.01900
C3116       C  0.48812492  0.65461178  0.39017623     0.05000
N3117       N  0.46786158  0.66458450  0.39606744     0.67500
H3118       H  0.50633324  0.67574038  0.41138708     0.16400
H3119       H  0.51058917  0.61508718  0.35798313     0.16100
N3120       N  0.54872204  0.62534421  0.37413369     0.75200
O3121       O  0.45759051  0.65744111  0.41243445    -0.38300
O3122       O  0.46281152  0.68302136  0.38809602    -0.38200
O3123       O  0.55472803  0.60854396  0.38461774    -0.38900
O3124       O  0.55737819  0.62947791  0.35592298    -0.39000
C3125       C  0.36124760  0.60311165  0.32720516    -0.11300
C3126       C  0.38031105  0.59538981  0.33745767     0.05700
C3127       C  0.37827936  0.58009900  0.35465311    -0.06600
C3128       C  0.35756129  0.57349508  0.36164299    -0.07300
C3129       C  0.33844689  0.58217838  0.35227092    -0.01900
C3130       C  0.34047435  0.59693992  0.33458096     0.05000
N3131       N  0.32176950  0.60645589  0.32433793     0.67500
H3132       H  0.36236720  0.61498192  0.31405121     0.16400
H3133       H  0.35652836  0.56214106  0.37524257     0.16100
N3134       N  0.39699315  0.57159449  0.36573362     0.75200
O3135       O  0.31583596  0.62549995  0.32976302    -0.38300
O3136       O  0.31499024  0.59854519  0.30661552    -0.38200
O3137       O  0.40211440  0.57921230  0.38412989    -0.38900
O3138       O  0.40523815  0.55369152  0.35956809    -0.39000
C3139       C  0.43135300  0.71270247  0.34287644    -0.11300
C3140       C  0.41529244  0.69778896  0.33607154     0.05700
C3141       C  0.39317078  0.70264799  0.34071836    -0.06600
C3142       C  0.38779337  0.72148941  0.35268642    -0.07300
C3143       C  0.40404514  0.73549841  0.36080559    -0.01900
C3144       C  0.42606028  0.73111389  0.35536782     0.05000
N3145       N  0.44350276  0.74433313  0.36345510     0.67500
H3146       H  0.44844780  0.70934377  0.33978106     0.16400
H3147       H  0.37080213  0.72452042  0.35656195     0.16100
N3148       N  0.37596268  0.68823187  0.33431775     0.75200
O3149       O  0.45342146  0.73826852  0.38046410    -0.38300
O3150       O  0.45229243  0.75831915  0.35104599    -0.38200
O3151       O  0.36769053  0.67544898  0.34827355    -0.38900
O3152       O  0.36572517  0.69208155  0.31687749    -0.39000
C3153       C  0.62840237  0.60374872  0.97184827    -0.11300
C3154       C  0.64347130  0.60569020  0.98888112     0.05700
C3155       C  0.66338553  0.59412381  0.98765507    -0.06600
C3156       C  0.66883885  0.58285627  0.96859861    -0.07300
C3157       C  0.65479269  0.58290093  0.95049990    -0.01900
C3158       C  0.63386487  0.59260147  0.95267890     0.05000
N3159       N  0.61864920  0.59308002  0.93503366     0.67500
H3160       H  0.61295212  0.61236139  0.97267734     0.16400
H3161       H  0.68467814  0.57502397  0.96760494     0.16100
N3162       N  0.67841835  0.59394203  0.00548369     0.75200
O3163       O  0.60225984  0.58055477  0.93559720    -0.38300
O3164       O  0.61860921  0.60929776  0.92218369    -0.38200
O3165       O  0.67777091  0.57835980  0.01906805    -0.38900
O3166       O  0.69495423  0.60627461  0.00493781    -0.39000
C3167       C  0.73253490  0.62937451  0.07168274    -0.11300
C3168       C  0.73030777  0.61158357  0.08628750     0.05700
C3169       C  0.70928908  0.60682703  0.09457948    -0.06600
C3170       C  0.69117190  0.61884544  0.08744171    -0.07300
C3171       C  0.69315568  0.63559858  0.07181634    -0.01900
C3172       C  0.71421915  0.64130335  0.06437713     0.05000
N3173       N  0.71712177  0.65791563  0.04813948     0.67500
H3174       H  0.74841119  0.63332841  0.06495957     0.16400
H3175       H  0.67519062  0.61428921  0.09354280     0.16100
N3176       N  0.70573575  0.58917380  0.10954411     0.75200
O3177       O  0.71966343  0.67765162  0.05373590    -0.38300
O3178       O  0.71517889  0.65318964  0.02823267    -0.38200
O3179       O  0.70385476  0.59327835  0.12958456    -0.38900
O3180       O  0.69951863  0.57080791  0.10241497    -0.39000
C3181       C  0.62753063  0.59006203  0.25409425    -0.11300
C3182       C  0.62138117  0.57400007  0.23912744     0.05700
C3183       C  0.63002661  0.55261028  0.24138112    -0.06600
C3184       C  0.64250765  0.54717255  0.25974293    -0.07300
C3185       C  0.64623610  0.56256454  0.27630275    -0.01900
C3186       C  0.63962438  0.58457865  0.27267931     0.05000
N3187       N  0.64290294  0.60121835  0.28860384     0.67500
H3188       H  0.62137551  0.60665605  0.25238180     0.16400
H3189       H  0.64781151  0.53032644  0.26176874     0.16100
N3190       N  0.62560292  0.53594246  0.22567063     0.75200
O3191       O  0.66036753  0.61218635  0.28818355    -0.38300
O3192       O  0.62646697  0.60891374  0.29833579    -0.38200
O3193       O  0.63985570  0.53155275  0.21150650    -0.38900
O3194       O  0.61048995  0.52233988  0.22926846    -0.39000
C3195       C  0.49888628  0.58824135  0.24282423    -0.11300
C3196       C  0.51099478  0.60528926  0.23323937     0.05700
C3197       C  0.50566308  0.62716076  0.23872581    -0.06600
C3198       C  0.48925791  0.63146337  0.25411207    -0.07300
C3199       C  0.47802779  0.61438607  0.26472453    -0.01900
C3200       C  0.48272349  0.59251043  0.25851022     0.05000
N3201       N  0.47151779  0.57433030  0.26809696     0.67500
H3202       H  0.50255385  0.57133923  0.23876563     0.16400
H3203       H  0.48594284  0.64837918  0.25839887     0.16100
N3204       N  0.51674267  0.64528646  0.22889014     0.75200
O3205       O  0.45481681  0.56674431  0.25873813    -0.38300
O3206       O  0.48111886  0.56281972  0.28230043    -0.38200
O3207       O  0.50783870  0.65533602  0.21322200    -0.38900
O3208       O  0.53242502  0.65418140  0.23884357    -0.39000
C3209       C  0.56729828  0.62316349  0.11708973    -0.11300
C3210       C  0.57704915  0.63032402  0.13654765     0.05700
C3211       C  0.59286015  0.64717824  0.13538306    -0.06600
C3212       C  0.59984587  0.65499958  0.11506312    -0.07300
C3213       C  0.59176297  0.64614422  0.09556076    -0.01900
C3214       C  0.57456954  0.63070812  0.09673920     0.05000
N3215       N  0.56494373  0.62172202  0.07753139     0.67500
H3216       H  0.55486928  0.61047371  0.11750324     0.16400
H3217       H  0.61283381  0.66711105  0.11464928     0.16100
N3218       N  0.60291926  0.65575432  0.15454502     0.75200
O3219       O  0.57176939  0.60358644  0.07037907    -0.38300
O3220       O  0.54669187  0.62889276  0.07115374    -0.38200
O3221       O  0.62185297  0.64942315  0.15970135    -0.38900
O3222       O  0.59526093  0.67289139  0.16311779    -0.39000
C3223       C  0.60311243  0.53048206  0.14393272    -0.11300
C3224       C  0.58645027  0.52802692  0.15949346     0.05700
C3225       C  0.58133734  0.50665819  0.16693173    -0.06600
C3226       C  0.59382641  0.48869401  0.15987494    -0.07300
C3227       C  0.61180102  0.49156318  0.14588309    -0.01900
C3228       C  0.61593163  0.51272471  0.13737485     0.05000
N3229       N  0.63376602  0.51683859  0.12292579     0.67500
H3230       H  0.60723879  0.54662810  0.13769402     0.16400
H3231       H  0.59030351  0.47260662  0.16661099     0.16100
N3232       N  0.56474641  0.50300637  0.18288314     0.75200
O3233       O  0.63009011  0.51880414  0.10278639    -0.38300
O3234       O  0.65154106  0.52388963  0.13059453    -0.38200
O3235       O  0.54628129  0.49611135  0.17690204    -0.38900
O3236       O  0.56997766  0.50177913  0.20273887    -0.39000
C3237       C  0.60181433  0.00364565  0.83658188    -0.11300
C3238       C  0.61084731  0.98959888  0.82096795     0.05700
C3239       C  0.60496942  0.99244263  0.79886211    -0.06600
C3240       C  0.59160318  0.01001382  0.79270255    -0.07300
C3241       C  0.58408238  0.02525793  0.80807452    -0.01900
C3242       C  0.58870002  0.02145929  0.83038890     0.05000
N3243       N  0.58128721  0.03611187  0.84692688     0.67500
H3244       H  0.60595305  0.00157647  0.85364258     0.16400
H3245       H  0.58815382  0.01236820  0.77552654     0.16100
N3246       N  0.61272732  0.97792904  0.78233329     0.75200
O3247       O  0.56417987  0.03150535  0.85742356    -0.38300
O3248       O  0.59417424  0.05043806  0.85429504    -0.38200
O3249       O  0.60057829  0.96253561  0.77590875    -0.38900
O3250       O  0.62888025  0.98354527  0.77084374    -0.39000
C3251       C  0.71833862  0.98902868  0.88215664    -0.11300
C3252       C  0.71512825  0.98542729  0.85978604     0.05700
C3253       C  0.72743092  0.99785766  0.84472073    -0.06600
C3254       C  0.74179063  0.01406626  0.85218305    -0.07300
C3255       C  0.74452408  0.01815282  0.87454099    -0.01900
C3256       C  0.73294218  0.00502939  0.88964130     0.05000
N3257       N  0.73498985  0.00830735  0.91258593     0.67500
H3258       H  0.70911357  0.97959384  0.89401672     0.16400
H3259       H  0.75058340  0.02383222  0.84026154     0.16100
N3260       N  0.72465545  0.99521280  0.82177444     0.75200
O3261       O  0.72161908  0.02068158  0.92221301    -0.38300
O3262       O  0.74664528  0.99531476  0.92364182    -0.38200
O3263       O  0.71255504  0.00841556  0.81146475    -0.38900
O3264       O  0.73792709  0.98337200  0.81138790    -0.39000
C3265       C  0.63120601  0.88797758  0.78538724    -0.11300
C3266       C  0.64761270  0.90383983  0.78265346     0.05700
C3267       C  0.65352923  0.91017655  0.76133350    -0.06600
C3268       C  0.64141452  0.90241130  0.74356674    -0.07300
C3269       C  0.62316443  0.88870381  0.74664040    -0.01900
C3270       C  0.61879595  0.88062324  0.76780082     0.05000
N3271       N  0.60066170  0.86653179  0.77217916     0.67500
H3272       H  0.62671036  0.88247123  0.80160754     0.16400
H3273       H  0.64529824  0.90862631  0.72745078     0.16100
N3274       N  0.67022431  0.92608741  0.75749120     0.75200
O3275       O  0.60388914  0.84619808  0.77440280    -0.38300
O3276       O  0.58307746  0.87475287  0.77909647    -0.38200
O3277       O  0.68863092  0.91983792  0.75069544    -0.38900
O3278       O  0.66513779  0.94610750  0.75601760    -0.39000
C3279       C  0.57834640  0.73954034  0.83780472    -0.11300
C3280       C  0.59349689  0.73463634  0.85438925     0.05700
C3281       C  0.59956216  0.71251458  0.85764307    -0.06600
C3282       C  0.58845149  0.69587914  0.84661603    -0.07300
C3283       C  0.57130697  0.70063594  0.83212882    -0.01900
C3284       C  0.56724807  0.72279693  0.82665211     0.05000
N3285       N  0.55068457  0.72873262  0.81134264     0.67500
H3286       H  0.57367072  0.75643018  0.83469620     0.16400
H3287       H  0.59257853  0.67895774  0.85034132     0.16100
N3288       N  0.61621836  0.70648070  0.87283445     0.75200
O3289       O  0.53178393  0.73323526  0.81815989    -0.38300
O3290       O  0.55621880  0.73484290  0.79247187    -0.38200
O3291       O  0.61087130  0.69829235  0.89097719    -0.38900
O3292       O  0.63555334  0.70419710  0.86613617    -0.39000
C3293       C  0.59496621  0.73486800  0.97421689    -0.11300
C3294       C  0.61258145  0.74695486  0.96584647     0.05700
C3295       C  0.63358470  0.74324968  0.97473317    -0.06600
C3296       C  0.63657985  0.72715895  0.99096204    -0.07300
C3297       C  0.61912325  0.71408838  0.99830945    -0.01900
C3298       C  0.59801191  0.71845324  0.98996175     0.05000
N3299       N  0.57946307  0.70595809  0.99669360     0.67500
H3300       H  0.57867675  0.73735873  0.96770162     0.16400
H3301       H  0.65293137  0.72422859  0.99712339     0.16100
N3302       N  0.65213747  0.75530834  0.96723885     0.75200
O3303       O  0.56717386  0.71344156  0.01138598    -0.38300
O3304       O  0.57254045  0.69079603  0.98456739    -0.38200
O3305       O  0.65914490  0.77117362  0.97838619    -0.38900
O3306       O  0.66414973  0.74719935  0.95264165    -0.39000
C3307       C  0.62942300  0.86278893  0.90518878    -0.11300
C3308       C  0.63738713  0.84346963  0.89552162     0.05700
C3309       C  0.65453773  0.84528005  0.88025242    -0.06600
C3310       C  0.66180270  0.86603502  0.87353788    -0.07300
C3311       C  0.65233097  0.88537173  0.88162919    -0.01900
C3312       C  0.63669072  0.88357374  0.89845131     0.05000
N3313       N  0.62778585  0.90258760  0.90870700     0.67500
H3314       H  0.61664721  0.86189453  0.91741037     0.16400
H3315       H  0.67416446  0.86691700  0.86089723     0.16100
N3316       N  0.66431852  0.82628955  0.87080949     0.75200
O3317       O  0.60959983  0.90998366  0.90239638    -0.38300
O3318       O  0.63519417  0.90843084  0.92697419    -0.38200
O3319       O  0.65917659  0.82076603  0.85169199    -0.38900
O3320       O  0.68113545  0.81811826  0.87951768    -0.39000
C3321       C  0.52965433  0.82968048  0.88825510    -0.11300
C3322       C  0.53221861  0.80714966  0.89281991     0.05700
C3323       C  0.51497553  0.79276767  0.88735069    -0.06600
C3324       C  0.49710909  0.80059672  0.87543092    -0.07300
C3325       C  0.49552794  0.82272383  0.86917211    -0.01900
C3326       C  0.51143625  0.83758756  0.87674205     0.05000
N3327       N  0.51020512  0.86044137  0.87163205     0.67500
H3328       H  0.54242377  0.84119037  0.89263754     0.16400
H3329       H  0.48458500  0.78902525  0.87049014     0.16100
N3330       N  0.51545305  0.77006967  0.89325101     0.75200
O3331       O  0.50159014  0.87337427  0.88513782    -0.38300
O3332       O  0.52183739  0.86813878  0.85646364    -0.38200
O3333       O  0.50552595  0.76389738  0.91020841    -0.38900
O3334       O  0.52069040  0.75601374  0.87914263    -0.39000
C3335       C  0.13364819  0.07027443  0.72649036    -0.11300
C3336       C  0.12098386  0.08937134  0.72902425     0.05700
C3337       C  0.12372968  0.10182006  0.74819097    -0.06600
C3338       C  0.13692233  0.09376013  0.76512858    -0.07300
C3339       C  0.14769041  0.07343204  0.76348009    -0.01900
C3340       C  0.14679587  0.06218068  0.74341941     0.05000
N3341       N  0.15724126  0.04141733  0.74060663     0.67500
H3342       H  0.13210657  0.06049123  0.71182641     0.16400
H3343       H  0.13783860  0.10303293  0.78017008     0.16100
N3344       N  0.11280656  0.12231761  0.75106713     0.75200
O3345       O  0.14701482  0.02409438  0.74543848    -0.38300
O3346       O  0.17404894  0.04019302  0.72879906    -0.38200
O3347       O  0.09672474  0.12341994  0.76385414    -0.38900
O3348       O  0.12223183  0.13976912  0.74518281    -0.39000
C3349       C  0.98581953  0.13663231  0.74656823    -0.11300
C3350       C  0.97476474  0.11945753  0.75718158     0.05700
C3351       C  0.97882057  0.09773810  0.75011703    -0.06600
C3352       C  0.99447239  0.09363493  0.73382345    -0.07300
C3353       C  0.00651733  0.11073733  0.72413304    -0.01900
C3354       C  0.00148788  0.13255858  0.73033309     0.05000
N3355       N  0.01233856  0.15090467  0.72065482     0.67500
H3356       H  0.98290254  0.15346093  0.75143769     0.16400
H3357       H  0.99766766  0.07677843  0.72923967     0.16100
N3358       N  0.96724217  0.07956396  0.75926024     0.75200
O3359       O  0.00363515  0.16048018  0.70458833    -0.38300
O3360       O  0.02723322  0.16052991  0.73112821    -0.38200
O3361       O  0.95100731  0.07186283  0.74920140    -0.38900
O3362       O  0.97601047  0.06835519  0.77421466    -0.39000
C3363       C  0.08415795  0.01193588  0.67659982    -0.11300
C3364       C  0.08048353  0.02819603  0.66071687     0.05700
C3365       C  0.08853966  0.02448178  0.63937117    -0.06600
C3366       C  0.10105744  0.00569054  0.63489364    -0.07300
C3367       C  0.10627761  0.99051887  0.65132986    -0.01900
C3368       C  0.09699760  0.99341617  0.67221187     0.05000
N3369       N  0.10078461  0.97796098  0.68937212     0.67500
H3370       H  0.07802454  0.01411954  0.69302347     0.16400
H3371       H  0.10787022  0.00371007  0.61870770     0.16100
N3372       N  0.08548611  0.04019560  0.62232165     0.75200
O3373       O  0.11552490  0.98176427  0.70322020    -0.38300
O3374       O  0.08642702  0.96371932  0.69357463    -0.38200
O3375       O  0.10058044  0.05366269  0.61815591    -0.38900
O3376       O  0.07077629  0.03695766  0.60830180    -0.39000
C3377       C  0.17570476  0.10569248  0.48300269    -0.11300
C3378       C  0.15412303  0.11346194  0.48426931     0.05700
C3379       C  0.13892673  0.10614220  0.46859585    -0.06600
C3380       C  0.14595766  0.09307321  0.45114614    -0.07300
C3381       C  0.16798458  0.08683243  0.44887268    -0.01900
C3382       C  0.18268856  0.09242104  0.46573452     0.05000
N3383       N  0.20497113  0.08550619  0.46530885     0.67500
H3384       H  0.18755385  0.11046588  0.49523720     0.16400
H3385       H  0.13420646  0.08881706  0.43863860     0.16100
N3386       N  0.11663232  0.11297600  0.46922779     0.75200
O3387       O  0.21956766  0.09899805  0.45969921    -0.38300
O3388       O  0.21037872  0.06827675  0.47542745    -0.38200
O3389       O  0.11051144  0.12887003  0.45748637    -0.38900
O3390       O  0.10251373  0.10040743  0.47752955    -0.39000
C3391       C  0.13667175  0.24626172  0.46437972    -0.11300
C3392       C  0.11466415  0.25256074  0.46241779     0.05700
C3393       C  0.09975281  0.24531232  0.47846632    -0.06600
C3394       C  0.10662272  0.23058554  0.49466068    -0.07300
C3395       C  0.12822474  0.22287941  0.49552823    -0.01900
C3396       C  0.14359269  0.23171196  0.48074533     0.05000
N3397       N  0.16594014  0.22500286  0.48106884     0.67500
H3398       H  0.14857118  0.25199602  0.45254790    -0.31600
H3399       H  0.09459590  0.22437245  0.50612246     0.16100
N3400       N  0.07725841  0.25144132  0.47780156     0.75200
O3401       O  0.17204598  0.20952622  0.46890674    -0.38300
O3402       O  0.18006757  0.23751911  0.48935724    -0.38200
O3403       O  0.06365358  0.23868916  0.46901844    -0.38900
O3404       O  0.07049004  0.26626261  0.49041078    -0.39000
C3405       C  0.08789761  0.15261152  0.62640876    -0.11300
C3406       C  0.07575376  0.13315171  0.62503665     0.05700
C3407       C  0.07125588  0.12446122  0.60417527    -0.06600
C3408       C  0.08072755  0.13402247  0.58562658    -0.07300
C3409       C  0.09459871  0.15232143  0.58723322    -0.01900
C3410       C  0.09707449  0.16236977  0.60784094     0.05000
N3411       N  0.10955959  0.18196731  0.61049512     0.67500
H3412       H  0.09101488  0.15994689  0.64218077     0.16400
H3413       H  0.07821073  0.12617126  0.57000080     0.16100
N3414       N  0.05874698  0.10486457  0.60156304     0.75200
O3415       O  0.09990196  0.20025652  0.61005953    -0.38300
O3416       O  0.12849371  0.18077250  0.61851991    -0.38200
O3417       O  0.03919484  0.10627022  0.59523439    -0.38900
O3418       O  0.06850801  0.08669580  0.60018507    -0.39000
C3419       C  0.19049162  0.12767968  0.59051196    -0.11300
C3420       C  0.19464075  0.14599450  0.57722827     0.05700
C3421       C  0.21636917  0.15348786  0.57524363    -0.06600
C3422       C  0.23342466  0.14074849  0.58382357    -0.07300
C3423       C  0.22925910  0.12081621  0.59464988    -0.01900
C3424       C  0.20738931  0.11512102  0.59923819     0.05000
N3425       N  0.20201758  0.09605999  0.61176138     0.67500
H3426       H  0.17368825  0.12211174  0.59319360     0.16400
H3427       H  0.25026786  0.14582377  0.58058225     0.16100
N3428       N  0.22148335  0.17316127  0.56362190     0.75200
O3429       O  0.20038315  0.09764803  0.63218311    -0.38300
O3430       O  0.19411938  0.07948329  0.60233832    -0.38200
O3431       O  0.22460886  0.19063565  0.57413859    -0.38900
O3432       O  0.22775777  0.17202174  0.54408204    -0.39000
C3433       C  0.88196083  0.00560972  0.17866327    -0.11300
C3434       C  0.88316050  0.02403293  0.16488780     0.05700
C3435       C  0.87315881  0.02281703  0.14409505    -0.06600
C3436       C  0.86096973  0.00424571  0.13831354    -0.07300
C3437       C  0.85812355  0.98674301  0.15292196    -0.01900
C3438       C  0.86955453  0.98714787  0.17296210     0.05000
N3439       N  0.86838804  0.96919491  0.18798192     0.67500
H3440       H  0.88969897  0.00593949  0.19453740     0.16400
H3441       H  0.85258764  0.00417624  0.12275993     0.16100
N3442       N  0.87433582  0.04061340  0.12891895     0.75200
O3443       O  0.88261731  0.95424724  0.18713917    -0.38300
O3444       O  0.85648557  0.97076563  0.20467804    -0.38200
O3445       O  0.88787798  0.03966561  0.11347068    -0.38900
O3446       O  0.85865636  0.05400184  0.12771082    -0.39000
C3447       C  0.83136249  0.88624631  0.19895455    -0.11300
C3448       C  0.81770097  0.90463985  0.20115410     0.05700
C3449       C  0.81590805  0.91450191  0.22188422    -0.06600
C3450       C  0.82969448  0.90764203  0.23888269    -0.07300
C3451       C  0.84535681  0.89104942  0.23570830    -0.01900
C3452       C  0.84523157  0.87953517  0.21579268     0.05000
N3453       N  0.86018695  0.86205261  0.21166231     0.67500
H3454       H  0.83266531  0.87793741  0.18341618     0.16400
H3455       H  0.82901048  0.91635634  0.25423805     0.16100
N3456       N  0.80114063  0.93222112  0.22573119     0.75200
O3457       O  0.85425028  0.84251695  0.21506810    -0.38300
O3458       O  0.87691036  0.86568841  0.20020476    -0.38200
O3459       O  0.78265224  0.92814823  0.23385007    -0.38900
O3460       O  0.80833646  0.95161610  0.22617413    -0.39000
C3461       C  0.89968105  0.74048889  0.13711497    -0.11300
C3462       C  0.88167857  0.73711977  0.12328607     0.05700
C3463       C  0.87172739  0.71624944  0.12297085    -0.06600
C3464       C  0.88107361  0.69889691  0.13466774    -0.07300
C3465       C  0.90053475  0.70167921  0.14645549    -0.01900
C3466       C  0.90941334  0.72296158  0.14835445     0.05000
N3467       N  0.92980215  0.72662905  0.15906026     0.67500
H3468       H  0.90767875  0.75635566  0.13752526     0.16400
H3469       H  0.87378359  0.68274051  0.13332997     0.16100
N3470       N  0.85294926  0.71197416  0.10983605     0.75200
O3471       O  0.94728846  0.72438920  0.14842986    -0.38300
O3472       O  0.93011922  0.73712843  0.17673311    -0.38200
O3473       O  0.85531541  0.70279496  0.09159296    -0.38900
O3474       O  0.83425981  0.71255482  0.11844105    -0.39000
C3475       C  0.84035574  0.86153410  0.07412825    -0.11300
C3476       C  0.83421900  0.84156377  0.08392046     0.05700
C3477       C  0.81795216  0.84195691  0.10025349    -0.06600
C3478       C  0.80984746  0.86208615  0.10775597    -0.07300
C3479       C  0.81757488  0.88212139  0.09937446    -0.01900
C3480       C  0.83222865  0.88165055  0.08163813     0.05000
N3481       N  0.83918698  0.90139964  0.07113516     0.67500
H3482       H  0.85235867  0.86171074  0.06114077     0.16400
H3483       H  0.79825052  0.86197923  0.12111107     0.16100
N3484       N  0.80982678  0.82218670  0.10984639     0.75200
O3485       O  0.85804737  0.90878413  0.07491569    -0.38300
O3486       O  0.82887109  0.90821494  0.05464397    -0.38200
O3487       O  0.81668018  0.81633328  0.12836824    -0.38900
O3488       O  0.79250988  0.81380718  0.10247556    -0.39000
C3489       C  0.94164312  0.83379796  0.08781357    -0.11300
C3490       C  0.94121925  0.81156249  0.08177392     0.05700
C3491       C  0.95981791  0.79850611  0.08607509    -0.06600
C3492       C  0.97729020  0.80728150  0.09789557    -0.07300
C3493       C  0.97682908  0.82896156  0.10559338    -0.01900
C3494       C  0.95910425  0.84253227  0.09973084     0.05000
N3495       N  0.95743486  0.86449438  0.10758216     0.67500
H3496       H  0.92756659  0.84418103  0.08473461     0.16400
H3497       H  0.99107700  0.79673486  0.10170615     0.16100
N3498       N  0.96110772  0.77619239  0.07908872     0.75200
O3499       O  0.96188662  0.88026098  0.09496774    -0.38300
O3500       O  0.94686589  0.86814658  0.12483381    -0.38200
O3501       O  0.97155392  0.77174301  0.06194973    -0.38900
O3502       O  0.95689756  0.76100179  0.09247201    -0.39000
C3503       C  0.34154188  0.08999422  0.22465504    -0.11300
C3504       C  0.34748526  0.07399994  0.24001377     0.05700
C3505       C  0.33967276  0.05235034  0.23735547    -0.06600
C3506       C  0.32796614  0.04673577  0.21862838    -0.07300
C3507       C  0.32413385  0.06215520  0.20203543    -0.01900
C3508       C  0.33018617  0.08429970  0.20565883     0.05000
N3509       N  0.32630671  0.10098262  0.18969199     0.67500
H3510       H  0.34717542  0.10676511  0.22654252     0.16400
H3511       H  0.32317146  0.02973865  0.21647839     0.16100
N3512       N  0.34427658  0.03555316  0.25299533     0.75200
O3513       O  0.34131156  0.10601919  0.17650787    -0.38300
O3514       O  0.31043145  0.11392720  0.19217472    -0.38200
O3515       O  0.32986972  0.03051673  0.26682076    -0.38900
O3516       O  0.35955447  0.02220875  0.24925633    -0.39000
C3517       C  0.38020316  0.98886551  0.31980524    -0.11300
C3518       C  0.36499566  0.99111063  0.33682749     0.05700
C3519       C  0.36373261  0.01131210  0.34786722    -0.06600
C3520       C  0.37577937  0.02924048  0.34031233    -0.07300
C3521       C  0.38871639  0.02777533  0.32147410    -0.01900
C3522       C  0.39184321  0.00700854  0.31185509     0.05000
N3523       N  0.40456955  0.00444932  0.29252895     0.67500
H3524       H  0.38154382  0.97344531  0.31115083     0.16400
H3525       H  0.37353737  0.04491453  0.34828182     0.16100
N3526       N  0.34926189  0.01442961  0.36583943     0.75200
O3527       O  0.42332579  0.99599993  0.29388350    -0.38300
O3528       O  0.39522633  0.00529722  0.27422607    -0.38200
O3529       O  0.35682644  0.01366621  0.38495016    -0.38900
O3530       O  0.33099647  0.02345176  0.36258081    -0.39000
C3531       C  0.32595740  0.09469413  0.52635411    -0.11300
C3532       C  0.30342157  0.09134133  0.52948423     0.05700
C3533       C  0.28873895  0.10021044  0.51401198    -0.06600
C3534       C  0.29664080  0.11279994  0.49665247    -0.07300
C3535       C  0.31901478  0.11722901  0.49422254    -0.01900
C3536       C  0.33383795  0.10757942  0.50904028     0.05000
N3537       N  0.35670063  0.11203384  0.50786571     0.67500
H3538       H  0.33757395  0.08821479  0.53805736     0.16400
H3539       H  0.28493036  0.11982438  0.48534738     0.16100
N3540       N  0.26563552  0.09794695  0.51634915     0.75200
O3541       O  0.36471637  0.12684418  0.51974916    -0.38300
O3542       O  0.36923013  0.09811641  0.49924823    -0.38200
O3543       O  0.25501631  0.11269293  0.52610060    -0.38900
O3544       O  0.25556459  0.08434482  0.50460354    -0.39000
C3545       C  0.38543537  0.12766005  0.38553636    -0.11300
C3546       C  0.37439907  0.14788256  0.38501998     0.05700
C3547       C  0.37225716  0.15879578  0.36469974    -0.06600
C3548       C  0.37955512  0.14863887  0.34551820    -0.07300
C3549       C  0.38947802  0.12788862  0.34602551    -0.01900
C3550       C  0.39292644  0.11765299  0.36643411     0.05000
N3551       N  0.40213363  0.09615347  0.36796131     0.67500
H3552       H  0.38734938  0.11886012  0.40082110     0.16400
H3553       H  0.37698590  0.15687227  0.33001659     0.16100
N3554       N  0.36224646  0.17990608  0.36304346     0.75200
O3555       O  0.42229978  0.09404257  0.37158872    -0.38300
O3556       O  0.38967523  0.07988293  0.37066247    -0.38200
O3557       O  0.37418167  0.19669715  0.36131584    -0.38900
O3558       O  0.34228891  0.18125969  0.35811905    -0.39000
C3559       C  0.27907456  0.13147921  0.38809710    -0.11300
C3560       C  0.27596136  0.14597551  0.40556271     0.05700
C3561       C  0.25451444  0.14998838  0.41291400    -0.06600
C3562       C  0.23700757  0.13825350  0.40387008    -0.07300
C3563       C  0.24045531  0.12223183  0.38776602    -0.01900
C3564       C  0.26168567  0.11963076  0.37922141     0.05000
N3565       N  0.26611520  0.10437566  0.36216159     0.67500
H3566       H  0.29538455  0.12849695  0.38189149     0.16400
H3567       H  0.22086776  0.14049462  0.41076964     0.16100
N3568       N  0.25042630  0.16409144  0.43099764     0.75200
O3569       O  0.26543851  0.11083087  0.34261810    -0.38300
O3570       O  0.27522456  0.08633882  0.36665759    -0.38200
O3571       O  0.24168278  0.18256766  0.42776167    -0.38900
O3572       O  0.25110458  0.15633361  0.45007991    -0.39000
C3573       C  0.42334604  0.23846888  0.62368323    -0.11300
C3574       C  0.40109234  0.24038703  0.61846525     0.05700
C3575       C  0.38635935  0.22496988  0.62738782    -0.06600
C3576       C  0.39436889  0.20710323  0.63951666    -0.07300
C3577       C  0.41689814  0.20419896  0.64309452    -0.01900
C3578       C  0.43134388  0.22076059  0.63582226     0.05000
N3579       N  0.45433045  0.21945865  0.63962361     0.67500
H3580       H  0.43495152  0.25048164  0.61758493     0.16400
H3581       H  0.38287145  0.19475082  0.64510374     0.16100
N3582       N  0.36347375  0.22624264  0.62310828     0.75200
O3583       O  0.46680011  0.21382938  0.62427484    -0.38300
O3584       O  0.46233085  0.22897316  0.65600503    -0.38200
O3585       O  0.35530159  0.21427216  0.60849252    -0.38900
O3586       O  0.35109284  0.23481343  0.63712416    -0.39000
C3587       C  0.37631261  0.22507237  0.48373945    -0.11300
C3588       C  0.35401807  0.22205448  0.47920499     0.05700
C3589       C  0.33870745  0.23543661  0.49013061    -0.06600
C3590       C  0.34579671  0.25037624  0.50600260    -0.07300
C3591       C  0.36803473  0.25271034  0.51120314    -0.01900
C3592       C  0.38342516  0.24019966  0.49939852     0.05000
N3593       N  0.40624843  0.24154732  0.50399166     0.67500
H3594       H  0.38842192  0.21505330  0.47553988     0.16400
H3595       H  0.33365012  0.25991425  0.51469530     0.16100
N3596       N  0.31581638  0.23328726  0.48624613     0.75200
O3597       O  0.41446443  0.22895424  0.51815776    -0.38300
O3598       O  0.41863903  0.25142941  0.49079406    -0.38200
O3599       O  0.30421449  0.22264801  0.49958332    -0.38900
O3600       O  0.30671020  0.24570629  0.47248207    -0.39000
C3601       C  0.46517730  0.31603773  0.58157189    -0.11300
C3602       C  0.44547856  0.32737058  0.58439838     0.05700
C3603       C  0.44538762  0.34640862  0.59750595    -0.06600
C3604       C  0.46418051  0.35235249  0.60907591    -0.07300
C3605       C  0.48312035  0.33940118  0.60841957    -0.01900
C3606       C  0.48381629  0.32159162  0.59362483     0.05000
N3607       N  0.50244960  0.30757219  0.59212925     0.67500
H3608       H  0.46561436  0.30142919  0.57154389     0.16400
H3609       H  0.46336965  0.36641320  0.61981267     0.16100
N3610       N  0.42619489  0.35951134  0.59998293     0.75200
O3611       O  0.50340825  0.29067225  0.60404288    -0.38300
O3612       O  0.51463257  0.30888899  0.57560848    -0.38200
O3613       O  0.41314564  0.35522979  0.61532321    -0.38900
O3614       O  0.42573422  0.37834187  0.59137485    -0.39000
C3615       C  0.38208065  0.49794080  0.65555747    -0.11300
C3616       C  0.36582632  0.49985859  0.63945071     0.05700
C3617       C  0.36193109  0.52076717  0.63014963    -0.06600
C3618       C  0.37231776  0.53928839  0.63874785    -0.07300
C3619       C  0.38662133  0.53761090  0.65657105    -0.01900
C3620       C  0.39232948  0.51652653  0.66428580     0.05000
N3621       N  0.40643781  0.51375439  0.68262441     0.67500
H3622       H  0.38553649  0.48208645  0.66288557     0.16400
H3623       H  0.36817649  0.55530857  0.63215354     0.16100
N3624       N  0.34663867  0.52378397  0.61280352     0.75200
O3625       O  0.39828832  0.51275226  0.70148071    -0.38300
O3626       O  0.42575084  0.50722159  0.67965976    -0.38200
O3627       O  0.32777794  0.53090798  0.61706502    -0.38900
O3628       O  0.35356633  0.52482541  0.59347084    -0.39000
C3629       C  0.34537416  0.38837716  0.58448934    -0.11300
C3630       C  0.33078623  0.38739144  0.60206196     0.05700
C3631       C  0.32324600  0.36659522  0.60912096    -0.06600
C3632       C  0.33127437  0.34749732  0.59934384    -0.07300
C3633       C  0.34694823  0.34845627  0.58268920    -0.01900
C3634       C  0.35350380  0.36929789  0.57481696     0.05000
N3635       N  0.36952227  0.37155874  0.55806095     0.67500
H3636       H  0.35125358  0.40414042  0.57866146     0.16400
H3637       H  0.32598296  0.33172423  0.60568975     0.16100
N3638       N  0.30882307  0.36434213  0.62727893     0.75200
O3639       O  0.36349361  0.37657513  0.53902868    -0.38300
O3640       O  0.38928376  0.37400214  0.56328455    -0.38200
O3641       O  0.28926262  0.35875926  0.62402555    -0.38900
O3642       O  0.31675963  0.36246077  0.64616088    -0.39000
C3643       C  0.34184329  0.44228855  0.71849608    -0.11300
C3644       C  0.33243072  0.42616765  0.70520180     0.05700
C3645       C  0.33454837  0.40389705  0.71150797    -0.06600
C3646       C  0.34746626  0.39819823  0.72957559    -0.07300
C3647       C  0.35842405  0.41429581  0.74167267    -0.01900
C3648       C  0.35471137  0.43662951  0.73648362     0.05000
N3649       N  0.36430096  0.45389393  0.74892864     0.67500
H3650       H  0.34023050  0.45949941  0.71430521     0.16400
H3651       H  0.34962447  0.38100537  0.73356587     0.16100
N3652       N  0.32439712  0.38674631  0.69938852     0.75200
O3653       O  0.38093164  0.46368534  0.74164730    -0.38300
O3654       O  0.35355430  0.46239924  0.76426119    -0.38200
O3655       O  0.33597006  0.37477968  0.68727952    -0.38900
O3656       O  0.30558291  0.38031677  0.70481091    -0.39000
C3657       C  0.23365075  0.63858718  0.57087966    -0.11300
C3658       C  0.23612064  0.62447239  0.58892433     0.05700
C3659       C  0.25653476  0.62380031  0.59963722    -0.06600
C3660       C  0.27431458  0.63522130  0.59081517    -0.07300
C3661       C  0.27228956  0.64748519  0.57148932    -0.01900
C3662       C  0.25146238  0.64992911  0.56202908     0.05000
N3663       N  0.24854641  0.66160002  0.54200797     0.67500
H3664       H  0.21808382  0.63958943  0.56247636     0.16400
H3665       H  0.29018806  0.63339190  0.59848558     0.16100
N3666       N  0.26009487  0.61021852  0.61832851     0.75200
O3667       O  0.25055440  0.65149682  0.52421108    -0.38300
O3668       O  0.23932991  0.68011622  0.54217687    -0.38200
O3669       O  0.26827268  0.59137952  0.61587978    -0.38900
O3670       O  0.26021438  0.61884567  0.63698261    -0.39000
C3671       C  0.23541482  0.50309377  0.59618580    -0.11300
C3672       C  0.22472863  0.51399697  0.61322035     0.05700
C3673       C  0.22949313  0.50772914  0.63491363    -0.06600
C3674       C  0.24543283  0.49175312  0.63907929    -0.07300
C3675       C  0.25715058  0.48186150  0.62207191    -0.01900
C3676       C  0.25152796  0.48730861  0.60033847     0.05000
N3677       N  0.26245393  0.47760868  0.58221226     0.67500
H3678       H  0.23196784  0.50751459  0.57939187     0.16400
H3679       H  0.24927123  0.48778147  0.65589457     0.16100
N3680       N  0.21863120  0.51761388  0.65298425     0.75200
O3681       O  0.25424033  0.46093412  0.57326132    -0.38300
O3682       O  0.27694945  0.48841326  0.57226203    -0.38200
O3683       O  0.20322017  0.50744462  0.66218089    -0.38900
O3684       O  0.22755990  0.53347768  0.66268417    -0.39000
C3685       C  0.17620315  0.58720895  0.51505268    -0.11300
C3686       C  0.16064927  0.58308393  0.53136436     0.05700
C3687       C  0.13863753  0.58892032  0.52740587    -0.06600
C3688       C  0.13301817  0.60017420  0.50829643    -0.07300
C3689       C  0.14898728  0.60622258  0.49311039    -0.01900
C3690       C  0.17064078  0.59884640  0.49614705     0.05000
N3691       N  0.18731137  0.60344667  0.48048695     0.67500
H3692       H  0.19313312  0.58270613  0.51756445     0.16400
H3693       H  0.11625961  0.60542784  0.50605048     0.16100
N3694       N  0.12186933  0.58447779  0.54295460     0.75200
O3695       O  0.20018493  0.61928353  0.48364588    -0.38300
O3696       O  0.19224584  0.58901977  0.46664402    -0.38200
O3697       O  0.11530115  0.59977365  0.55510895    -0.38900
O3698       O  0.11001755  0.56774553  0.54044832    -0.39000
C3699       C  0.95487279  0.64730057  0.58328498    -0.11300
C3700       C  0.95211183  0.67008389  0.58046012     0.05700
C3701       C  0.96812554  0.68429794  0.58910075    -0.06600
C3702       C  0.98456163  0.67585969  0.60249556    -0.07300
C3703       C  0.98587223  0.65335582  0.60732024    -0.01900
C3704       C  0.97170297  0.63882592  0.59639945     0.05000
N3705       N  0.97318655  0.61563232  0.59948580     0.67500
H3706       H  0.94310323  0.63597518  0.57638846     0.16400
H3707       H  0.99590081  0.68727629  0.60995953     0.16100
N3708       N  0.96726321  0.70749518  0.58568898     0.75200
O3709       O  0.96071263  0.60632517  0.61301028    -0.38300
O3710       O  0.98284897  0.60421075  0.58535268    -0.38200
O3711       O  0.95988928  0.71966898  0.60055772    -0.38900
O3712       O  0.97845290  0.71590616  0.57055960    -0.39000
C3713       C  0.08803997  0.58205319  0.63497999    -0.11300
C3714       C  0.08801329  0.59805255  0.65136155     0.05700
C3715       C  0.10823073  0.60506580  0.66004177    -0.06600
C3716       C  0.12775725  0.59736296  0.65109247    -0.07300
C3717       C  0.12774548  0.58257347  0.63367257    -0.01900
C3718       C  0.10758403  0.57423564  0.62613429     0.05000
N3719       N  0.10648307  0.55929208  0.60829099     0.67500
H3720       H  0.07272952  0.57632645  0.62813963     0.16400
H3721       H  0.14308278  0.60379241  0.65725556     0.16100
N3722       N  0.10939162  0.62130042  0.67671321     0.75200
O3723       O  0.10430356  0.53904644  0.61206966    -0.38300
O3724       O  0.10255340  0.56657838  0.58942980    -0.38200
O3725       O  0.11378914  0.61549565  0.69597063    -0.38900
O3726       O  0.11126615  0.64122133  0.67141173    -0.39000
C3727       C  0.05114097  0.71721417  0.64788511    -0.11300
C3728       C  0.06460452  0.69862677  0.64828069     0.05700
C3729       C  0.08537729  0.69986791  0.63826291    -0.06600
C3730       C  0.09142556  0.71880156  0.62671199    -0.07300
C3731       C  0.07687349  0.73637683  0.62427845    -0.01900
C3732       C  0.05687094  0.73583196  0.63578262     0.05000
N3733       N  0.04154725  0.75345780  0.63437816     0.67500
H3734       H  0.03516882  0.71670193  0.65550808     0.16400
H3735       H  0.10696226  0.71901594  0.61823503     0.16100
N3736       N  0.10026512  0.68184799  0.63891010     0.75200
O3737       O  0.02492141  0.75128375  0.62244598    -0.38300
O3738       O  0.04149327  0.76794289  0.64900693    -0.38200
O3739       O  0.10100458  0.66885703  0.62296373    -0.38900
O3740       O  0.11630271  0.68272190  0.65177865    -0.39000
C3741       C  0.83307660  0.59470075  0.00252306    -0.11300
C3742       C  0.81625516  0.60459394  0.99045686     0.05700
C3743       C  0.79439250  0.59895796  0.99534314    -0.06600
C3744       C  0.78978738  0.58540325  0.01319572    -0.07300
C3745       C  0.80650883  0.57740510  0.02668421    -0.01900
C3746       C  0.82842704  0.58127255  0.02055047     0.05000
N3747       N  0.84617976  0.57204492  0.03258380     0.67500
H3748       H  0.84998339  0.59828290  0.99867841     0.16400
H3749       H  0.77283583  0.58245554  0.01737579     0.16100
N3750       N  0.77654244  0.60750084  0.98293527     0.75200
O3751       O  0.85513152  0.55477030  0.02566948    -0.38300
O3752       O  0.85621063  0.58379501  0.04619060    -0.38200
O3753       O  0.76898704  0.59640018  0.96734485    -0.38900
O3754       O  0.76534162  0.62302820  0.99062236    -0.39000
C3755       C  0.84032796  0.74471646  0.00518788    -0.11300
C3756       C  0.86213074  0.74640985  0.01212849     0.05700
C3757       C  0.87789258  0.73252601  0.00251794    -0.06600
C3758       C  0.87136429  0.71643355  0.98763695    -0.07300
C3759       C  0.84940067  0.71403817  0.98154471    -0.01900
C3760       C  0.83388662  0.72891236  0.98995745     0.05000
N3761       N  0.81131491  0.72742203  0.98429790     0.67500
H3762       H  0.82793923  0.75531428  0.01215180     0.16400
H3763       H  0.88362825  0.70543874  0.98106376     0.16100
N3764       N  0.90045438  0.73383790  0.00827323     0.75200
O3765       O  0.79841358  0.71722933  0.99675530    -0.38300
O3766       O  0.80365371  0.74018035  0.96997136    -0.38200
O3767       O  0.90859558  0.71943972  0.02067713    -0.38900
O3768       O  0.91296223  0.74598479  0.99722020    -0.39000
C3769       C  0.77256326  0.63124181  0.88925519    -0.11300
C3770       C  0.77102323  0.64421362  0.90803694     0.05700
C3771       C  0.75032405  0.64753826  0.91755401    -0.06600
C3772       C  0.73215249  0.63629460  0.90936068    -0.07300
C3773       C  0.73419900  0.62147461  0.89195880    -0.01900
C3774       C  0.75451613  0.61982081  0.88123695     0.05000
N3775       N  0.75750087  0.60577778  0.86289699     0.67500
H3776       H  0.78824934  0.62886135  0.88140472     0.16400
H3777       H  0.71669579  0.63794582  0.91781321     0.16100
N3778       N  0.74779236  0.66032724  0.93685026     0.75200
O3779       O  0.75524545  0.61358161  0.84396145    -0.38300
O3780       O  0.76733475  0.58774000  0.86539474    -0.38200
O3781       O  0.74044333  0.67961855  0.93538369    -0.38900
O3782       O  0.74812009  0.65091299  0.95518941    -0.39000
C3783       C  0.83223569  0.57694068  0.73598927    -0.11300
C3784       C  0.84879992  0.59284521  0.73424558     0.05700
C3785       C  0.85295934  0.60241074  0.71366468    -0.06600
C3786       C  0.84250339  0.59417195  0.69517704    -0.07300
C3787       C  0.82790104  0.57647808  0.69668270    -0.01900
C3788       C  0.82192482  0.56857007  0.71744641     0.05000
N3789       N  0.80746076  0.55033960  0.71990607     0.67500
H3790       H  0.82856944  0.56948255  0.75160898     0.16400
H3791       H  0.84688705  0.60079984  0.67936628     0.16100
N3792       N  0.86875953  0.61944974  0.71092328     0.75200
O3793       O  0.81518538  0.53115293  0.72061547    -0.38300
O3794       O  0.78808541  0.55362355  0.72603728    -0.38200
O3795       O  0.88776423  0.61463506  0.70460677    -0.38900
O3796       O  0.86242448  0.63912614  0.70983585    -0.39000
C3797       C  0.96225865  0.62787415  0.74488025    -0.11300
C3798       C  0.95745471  0.60558954  0.74856883     0.05700
C3799       C  0.96932562  0.58967534  0.73672207    -0.06600
C3800       C  0.98466724  0.59632389  0.72099287    -0.07300
C3801       C  0.98879356  0.61863845  0.71680011    -0.01900
C3802       C  0.97755988  0.63449117  0.72921277     0.05000
N3803       N  0.98003580  0.65741243  0.72489438     0.67500
H3804       H  0.95333538  0.64049513  0.75356791     0.16400
H3805       H  0.99322659  0.58384860  0.71174577     0.16100
N3806       N  0.96557606  0.56674102  0.73983549     0.75200
O3807       O  0.96838775  0.66634066  0.71039344    -0.38300
O3808       O  0.98989641  0.66930347  0.73850050    -0.38200
O3809       O  0.95528007  0.55612361  0.72552063    -0.38900
O3810       O  0.97660581  0.55645180  0.75392110    -0.39000
C3811       C  0.86081652  0.65338114  0.86630792    -0.11300
C3812       C  0.87139738  0.64649711  0.88544242     0.05700
C3813       C  0.88987667  0.63277257  0.88360744    -0.06600
C3814       C  0.89642255  0.62519757  0.86304741    -0.07300
C3815       C  0.88465189  0.63060780  0.84406635    -0.01900
C3816       C  0.86694915  0.64539205  0.84586376     0.05000
N3817       N  0.85403583  0.65145227  0.82741227     0.67500
H3818       H  0.84652361  0.66386228  0.86727649     0.16400
H3819       H  0.91027710  0.61414325  0.86213879     0.16100
N3820       N  0.90203864  0.62611265  0.90236700     0.75200
O3821       O  0.83679986  0.64085774  0.82342149    -0.38300
O3822       O  0.85662007  0.67016791  0.81893960    -0.38200
O3823       O  0.90010200  0.60672169  0.90939016    -0.38900
O3824       O  0.91831957  0.63735924  0.90815201    -0.39000
C3825       C  0.87678393  0.52234546  0.83092988    -0.11300
C3826       C  0.87759297  0.52675912  0.80838754     0.05700
C3827       C  0.86603704  0.51273200  0.79415210    -0.06600
C3828       C  0.85295145  0.49598191  0.80262762    -0.07300
C3829       C  0.85114408  0.49234337  0.82515990    -0.01900
C3830       C  0.86392223  0.50518584  0.83936645     0.05000
N3831       N  0.86332678  0.50174021  0.86238614     0.67500
H3832       H  0.88560902  0.53272510  0.84220269     0.16400
H3833       H  0.84379276  0.48591426  0.79132100     0.16100
N3834       N  0.86651824  0.51572275  0.77104631     0.75200
O3835       O  0.87765991  0.48979260  0.87123557    -0.38300
O3836       O  0.85170113  0.51406133  0.87409604    -0.38200
O3837       O  0.87839376  0.50333752  0.75965250    -0.38900
O3838       O  0.85160001  0.52670200  0.76192262    -0.39000
C3839       C  0.73120498  0.13367346  0.06268755    -0.11300
C3840       C  0.73107287  0.12475529  0.08382103     0.05700
C3841       C  0.74878475  0.12932508  0.09777287    -0.06600
C3842       C  0.76712052  0.14045749  0.08957849    -0.07300
C3843       C  0.76818716  0.14729762  0.06764334    -0.01900
C3844       C  0.74940307  0.14482034  0.05450503     0.05000
N3845       N  0.74899764  0.15191042  0.03229539     0.67500
H3846       H  0.71748348  0.13084616  0.05184987     0.16400
H3847       H  0.78115370  0.14253103  0.10017094     0.16100
N3848       N  0.74931889  0.12119912  0.11962637     0.75200
O3849       O  0.75273221  0.13818122  0.01741344    -0.38300
O3850       O  0.73984490  0.16984727  0.02751979    -0.38200
O3851       O  0.75923297  0.10350489  0.12372936    -0.38900
O3852       O  0.74446748  0.13390180  0.13507119    -0.39000
C3853       C  0.74107287  0.99414887  0.14038360    -0.11300
C3854       C  0.74836482  0.98013679  0.12382170     0.05700
C3855       C  0.73970921  0.98284332  0.10262547    -0.06600
C3856       C  0.72482039  0.99982609  0.09830990    -0.07300
C3857       C  0.71859896  0.01473396  0.11458448    -0.01900
C3858       C  0.72660765  0.01143735  0.13597908     0.05000
N3859       N  0.72078997  0.02579902  0.15337644     0.67500
H3860       H  0.74749140  0.99238621  0.15677541     0.16400
H3861       H  0.71879076  0.00184880  0.08180247     0.16100
N3862       N  0.74584175  0.96860422  0.08523215     0.75200
O3863       O  0.70506657  0.02076062  0.16568395    -0.38300
O3864       O  0.73411653  0.04037465  0.15935564    -0.38200
O3865       O  0.73260914  0.95404053  0.07902583    -0.38900
O3866       O  0.76133572  0.97411596  0.07282933    -0.39000
C3867       C  0.62753984  0.10274546  0.00667569    -0.11300
C3868       C  0.64394112  0.10867616  0.99181293     0.05700
C3869       C  0.66555571  0.10144046  0.99569374    -0.06600
C3870       C  0.67047927  0.08968821  0.01469578    -0.07300
C3871       C  0.65450174  0.08566686  0.03056707    -0.01900
C3872       C  0.63267235  0.09176189  0.02614969     0.05000
N3873       N  0.61565380  0.08779752  0.04158162     0.67500
H3874       H  0.61086416  0.10803809  0.00397573     0.16400
H3875       H  0.68734064  0.08527900  0.01781905     0.16100
N3876       N  0.68302722  0.10704458  0.98126866     0.75200
O3877       O  0.61066595  0.10266429  0.05494211    -0.38300
O3878       O  0.60234685  0.07237755  0.03820729    -0.38200
O3879       O  0.69556298  0.12273531  0.98607227    -0.38900
O3880       O  0.68870204  0.09366938  0.96669140    -0.39000
C3881       C  0.45664627  0.13490363  0.09682775    -0.11300
C3882       C  0.47447510  0.14905966  0.09934619     0.05700
C3883       C  0.47453802  0.16930151  0.08808087    -0.06600
C3884       C  0.45596501  0.17602938  0.07665335    -0.07300
C3885       C  0.43702041  0.16309213  0.07645285    -0.01900
C3886       C  0.43791491  0.14171638  0.08558416     0.05000
N3887       N  0.41944463  0.12738923  0.08523266     0.67500
H3888       H  0.45650316  0.11914534  0.10509533     0.16400
H3889       H  0.45591900  0.19222360  0.06927029     0.16100
N3890       N  0.49303459  0.18358327  0.08865909     0.75200
O3891       O  0.41830424  0.11267476  0.07087409    -0.38300
O3892       O  0.40709849  0.12631307  0.10165757    -0.38200
O3893       O  0.50650490  0.18316264  0.07312147    -0.38900
O3894       O  0.49293056  0.19983393  0.10134088    -0.39000
C3895       C  0.46373841  0.09246143  0.23278729    -0.11300
C3896       C  0.45288448  0.10946598  0.24372031     0.05700
C3897       C  0.45747040  0.13138430  0.23754543    -0.06600
C3898       C  0.47233653  0.13573329  0.22063528    -0.07300
C3899       C  0.48240108  0.11865883  0.20903417    -0.01900
C3900       C  0.47806041  0.09677474  0.21546606     0.05000
N3901       N  0.48782314  0.07862204  0.20450039     0.67500
H3902       H  0.46042649  0.07551518  0.23710446     0.16400
H3903       H  0.47536314  0.15265442  0.21602354     0.16100
N3904       N  0.44707674  0.14947309  0.24804092     0.75200
O3905       O  0.50498013  0.07014879  0.21219937    -0.38300
O3906       O  0.47673580  0.06804336  0.19075531    -0.38200
O3907       O  0.45741788  0.16009159  0.26231898    -0.38900
O3908       O  0.43036080  0.15795136  0.23942040    -0.39000
C3909       C  0.60321178  0.07168627  0.12268547    -0.11300
C3910       C  0.62163194  0.08281888  0.13074997     0.05700
C3911       C  0.61862624  0.09919352  0.14663583    -0.06600
C3912       C  0.59757095  0.10500646  0.15306013    -0.07300
C3913       C  0.57910457  0.09532339  0.14355596    -0.01900
C3914       C  0.58204218  0.07792589  0.12872821     0.05000
N3915       N  0.56385094  0.06677558  0.11927180     0.67500
H3916       H  0.60512632  0.05888394  0.11058722     0.16400
H3917       H  0.59574447  0.11837406  0.16455876     0.16100
N3918       N  0.63665291  0.11088416  0.15570213     0.75200
O3919       O  0.55699191  0.07268077  0.10076628    -0.38300
O3920       O  0.55837941  0.04823279  0.12668325    -0.38200
O3921       O  0.64109956  0.12982051  0.14858907    -0.38900
O3922       O  0.64452398  0.10470603  0.17370522    -0.39000
C3923       C  0.58534864  0.21618458  0.11848519    -0.11300
C3924       C  0.57402423  0.23582532  0.12222991     0.05700
C3925       C  0.55646640  0.23564495  0.13719770    -0.06600
C3926       C  0.54915883  0.21569819  0.14605541    -0.07300
C3927       C  0.55905343  0.19573778  0.14038183    -0.01900
C3928       C  0.57806406  0.19627238  0.12731716     0.05000
N3929       N  0.58982015  0.17669716  0.12222318     0.67500
H3930       H  0.59912877  0.21593378  0.10739146     0.16400
H3931       H  0.53485649  0.21576728  0.15647258     0.16100
N3932       N  0.54551230  0.25543670  0.14317408     0.75200
O3933       O  0.58683811  0.16761394  0.10402202    -0.38300
O3934       O  0.60655143  0.17183550  0.13322795    -0.38200
O3935       O  0.52650534  0.25912113  0.13611198    -0.38900
O3936       O  0.55267154  0.26648469  0.15898475    -0.39000
loop_ 
_geom_bond_atom_site_label_1 
_geom_bond_atom_site_label_2 
_geom_bond_distance 
_geom_bond_site_symmetry_2 
_ccdc_geom_bond_type 
O1            C4   1.267       .  A
O1           Cd6   2.498       .  S
C2           O11   1.266       .  A
C2            O7   1.268       .  A
C2         C3913   1.479       .  S
O3            C9   1.271       .  A
O3           Cd6   2.492       .  S
C4           O12   1.260       .  A
C4         C3882   1.476       .  S
C5           O10   1.267       .  A
C5            O8   1.264       .  A
C5         C3899   1.492       .  S
Cd6          O13   2.451       .  S
Cd6          O12   2.440       .  S
Cd6          O11   2.414       .  S
Cd6           O7   2.481       .  S
Cd6          O10   2.499       .  S
Cd6           O8   2.492       .  S
C9           O13   1.264       .  A
C9         C3927   1.486       .  S
O14          C17   1.260       .  A
O14         Cd19   2.414       .  S
C15          O24   1.266       .  A
C15          O20   1.269       .  A
C15        C3910   1.481       .  S
O16          C22   1.264       .  A
O16         Cd19   2.467       .  S
C17          O25   1.268       .  A
C17        C3840   1.484       .  S
C18          O23   1.267       .  A
C18          O21   1.264       .  A
C18        C3857   1.490       .  S
Cd19         O26   2.473       .  S
Cd19         O25   2.548       .  S
Cd19         O24   2.441       .  S
Cd19         O20   2.459       .  S
Cd19         O23   2.485       .  S
Cd19         O21   2.481       .  S
C22          O26   1.269       .  A
C22        C3871   1.481       .  S
O27          C30   1.267       .  A
O27         Cd32   2.481       .  S
C28          O37   1.263       .  A
C28          O33   1.264       .  A
C28        C3784   1.482       .  S
O29          C35   1.268       .  A
O29         Cd32   2.531       .  S
C30          O38   1.267       .  A
C30        C3815   1.490       .  S
C31          O36   1.265       .  A
C31          O34   1.266       .  A
C31        C3826   1.490       .  S
Cd32         O39   2.449       .  S
Cd32         O38   2.466       .  S
Cd32         O37   2.447       .  S
Cd32         O33   2.476       .  S
Cd32         O36   2.470       .  S
Cd32         O34   2.480       .  S
C35          O39   1.264       .  A
C35        C3798   1.495       .  S
O40          C43   1.268       .  A
O40         Cd45   2.501       .  S
C41          O50   1.261       .  A
C41          O46   1.268       .  A
C41        C3742   1.484       .  S
O42          C48   1.266       .  A
O42         Cd45   2.496       .  S
C43          O51   1.267       .  A
C43        C3812   1.486       .  S
C44          O49   1.269       .  A
C44          O47   1.264       .  A
C44        C3770   1.479       .  S
Cd45         O52   2.454       .  S
Cd45         O51   2.446       .  S
Cd45         O50   2.448       .  S
Cd45         O46   2.497       .  S
Cd45         O49   2.497       .  S
Cd45         O47   2.403       .  S
C48          O52   1.265       .  A
C48        C3759   1.485       .  S
O53          C56   1.269       .  A
O53         Cd58   2.440       .  S
C54          O63   1.268       .  A
C54          O59   1.261       .  A
C54        C3703   1.484   1_455  S
O55          C61   1.267       .  A
O55         Cd58   2.504       .  S
C56          O64   1.267       .  A
C56        C3714   1.482       .  S
C57          O62   1.262       .  A
C57          O60   1.270       .  A
C57        C3728   1.482       .  S
Cd58         O65   2.479       .  S
Cd58         O64   2.453       .  S
Cd58         O63   2.540       .  S
Cd58         O59   2.411       .  S
Cd58         O62   2.455       .  S
Cd58         O60   2.480       .  S
C61          O65   1.265       .  A
C61        C3801   1.490   1_455  S
O66          C69   1.265       .  A
O66         Cd71   2.529       .  S
C67          O76   1.265       .  A
C67          O72   1.269       .  A
C67        C3717   1.480       .  S
O68          C74   1.269       .  A
O68         Cd71   2.468       .  S
C69          O77   1.260       .  A
C69        C3658   1.487       .  S
C70          O75   1.263       .  A
C70          O73   1.267       .  A
C70        C3672   1.486       .  S
Cd71         O78   2.453       .  S
Cd71         O77   2.442       .  S
Cd71         O76   2.453       .  S
Cd71         O72   2.449       .  S
Cd71         O75   2.470       .  S
Cd71         O73   2.476       .  S
C74          O78   1.264       .  A
C74        C3686   1.483       .  S
O79          C82   1.269       .  A
O79         Cd84   2.457       .  S
C80          O89   1.264       .  A
C80          O85   1.265       .  A
C80        C3616   1.490       .  S
O81          C87   1.268       .  A
O81         Cd84   2.477       .  S
C82          O90   1.264       .  A
C82        C3630   1.485       .  S
C83          O88   1.264       .  A
C83          O86   1.266       .  A
C83        C3644   1.488       .  S
Cd84         O91   2.470       .  S
Cd84         O90   2.466       .  S
Cd84         O89   2.494       .  S
Cd84         O85   2.477       .  S
Cd84         O88   2.488       .  S
Cd84         O86   2.464       .  S
C87          O91   1.264       .  A
C87        C3675   1.489       .  S
O92          C95   1.268       .  A
O92         Cd97   2.544       .  S
C93         O102   1.267       .  A
C93          O98   1.270       .  A
C93        C3633   1.486       .  S
O94         C100   1.272       .  A
O94         Cd97   2.498       .  S
C95         O103   1.261       .  A
C95        C3574   1.487       .  S
C96         O101   1.267       .  A
C96          O99   1.265       .  A
C96        C3591   1.493       .  S
Cd97        O104   2.434       .  S
Cd97        O103   2.418       .  S
Cd97        O102   2.459       .  S
Cd97         O98   2.450       .  S
Cd97        O101   2.512       .  S
Cd97         O99   2.475       .  S
C100        O104   1.262       .  A
C100       C3602   1.483       .  S
O105        C108   1.270       .  A
O105       Cd110   2.457       .  S
C106        O115   1.262       .  A
C106        O111   1.268       .  A
C106       C3535   1.486       .  S
O107        C113   1.268       .  A
O107       Cd110   2.514       .  S
C108        O116   1.269       .  A
C108       C3546   1.494       .  S
C109        O114   1.272       .  A
C109        O112   1.263       .  A
C109       C3560   1.483       .  S
Cd110       O117   2.459       .  S
Cd110       O116   2.491       .  S
Cd110       O115   2.418       .  S
Cd110       O111   2.532       .  S
Cd110       O114   2.523       .  S
Cd110       O112   2.405       .  S
C113        O117   1.265       .  A
C113       C3588   1.492       .  S
O118        C121   1.268       .  A
O118       Cd123   2.508       .  S
C119        O128   1.267       .  A
C119        O124   1.269       .  A
C119       C3549   1.486       .  S
O120        C126   1.271       .  A
O120       Cd123   2.515       .  S
C121        O129   1.260       .  A
C121       C3504   1.481       .  S
C122        O127   1.268       .  A
C122        O125   1.264       .  A
C122       C3896   1.491       .  S
Cd123       O130   2.390       .  S
Cd123       O129   2.448       .  S
Cd123       O128   2.471       .  S
Cd123       O124   2.479       .  S
Cd123       O127   2.490       .  S
Cd123       O125   2.499       .  S
C126        O130   1.264       .  A
C126       C3521   1.481       .  S
O131        C134   1.265       .  A
O131       Cd136   2.473       .  S
C132        O141   1.266       .  A
C132        O137   1.267       .  A
C132       C3476   1.491       .  S
O133        C139   1.264       .  A
O133       Cd136   2.479       .  S
C134        O142   1.264       .  A
C134       C3462   1.482       .  S
C135        O140   1.265       .  A
C135        O138   1.265       .  A
C135       C3756   1.488       .  S
Cd136       O143   2.469       .  S
Cd136       O142   2.456       .  S
Cd136       O141   2.467       .  S
Cd136       O137   2.493       .  S
Cd136       O140   2.496       .  S
Cd136       O138   2.461       .  S
C139        O143   1.266       .  A
C139       C3490   1.486       .  S
O144        C147   1.267       .  A
O144       Cd149   2.516       .  S
C145        O154   1.268       .  A
C145        O150   1.269       .  A
C145       C3479   1.488       .  S
O146        C152   1.269       .  A
O146       Cd149   2.515       .  S
C147        O155   1.259       .  A
C147       C3437   1.487       .  S
C148        O153   1.266       .  A
C148        O151   1.262       .  A
C148       C3854   1.487       .  S
Cd149       O156   2.419       .  S
Cd149       O155   2.467       .  S
Cd149       O154   2.464       .  S
Cd149       O150   2.489       .  S
Cd149       O153   2.494       .  S
Cd149       O151   2.497       .  S
C152        O156   1.265       .  A
C152       C3448   1.488       .  S
O157        C160   1.267       .  A
O157       Cd162   2.533       .  S
C158        O167   1.267       .  A
C158        O163   1.270       .  A
C158       C3409   1.492       .  S
O159        C165   1.271       .  A
O159       Cd162   2.524       .  S
C160        O168   1.262       .  A
C160       C3378   1.492       .  S
C161        O166   1.267       .  A
C161        O164   1.264       .  A
C161       C3395   1.487       .  S
Cd162       O169   2.381       .  S
Cd162       O168   2.452       .  S
Cd162       O167   2.479       .  S
Cd162       O163   2.465       .  S
Cd162       O166   2.513       .  S
Cd162       O164   2.446       .  S
C165        O169   1.263       .  A
C165       C3420   1.482       .  S
O170        C173   1.265       .  A
O170       Cd175   2.538       .  S
C171        O180   1.266       .  A
C171        O176   1.268       .  A
C171       C3406   1.487       .  S
O172        C178   1.270       .  A
O172       Cd175   2.483       .  S
C173        O181   1.260       .  A
C173       C3336   1.492       .  S
C174        O179   1.269       .  A
C174        O177   1.264       .  A
C174       C3353   1.504       .  S
Cd175       O182   2.493       .  S
Cd175       O181   2.464       .  S
Cd175       O180   2.492       .  S
Cd175       O176   2.461       .  S
Cd175       O179   2.532       .  S
Cd175       O177   2.509       .  S
C178        O182   1.265       .  A
C178       C3364   1.496       .  S
O183        C186   1.264       .  A
O183       Cd188   2.479       .  S
C184        O193   1.265       .  A
C184        O189   1.269       .  A
C184       C3308   1.491       .  S
O185        C191   1.265       .  A
O185       Cd188   2.496       .  S
C186        O194   1.265       .  A
C186       C3280   1.488       .  S
C187        O192   1.265       .  A
C187        O190   1.267       .  A
C187       C3294   1.491       .  S
Cd188       O195   2.478       .  S
Cd188       O194   2.486       .  S
Cd188       O193   2.457       .  S
Cd188       O189   2.496       .  S
Cd188       O192   2.500       .  S
Cd188       O190   2.471       .  S
C191        O195   1.264       .  A
C191       C3322   1.491       .  S
O196        C199   1.269       .  A
O196       Cd201   2.492       .  S
C197        O206   1.268       .  A
C197        O202   1.269       .  A
C197       C3311   1.489       .  S
O198        C204   1.272       .  A
O198       Cd201   2.511       .  S
C199        O207   1.261       .  A
C199       C3238   1.481       .  S
C200        O205   1.268       .  A
C200        O203   1.265       .  A
C200       C3252   1.485       .  S
Cd201       O208   2.376       .  S
Cd201       O207   2.440       .  S
Cd201       O206   2.452       .  S
Cd201       O202   2.487       .  S
Cd201       O205   2.501       .  S
Cd201       O203   2.447       .  S
C204        O208   1.264       .  A
C204       C3266   1.481       .  S
O209        C212   1.268       .  A
O209       Cd214   2.496       .  S
C210        O219   1.268       .  A
C210        O215   1.268       .  A
C210       C3210   1.489       .  S
O211        C217   1.271       .  A
O211       Cd214   2.516       .  S
C212        O220   1.260       .  A
C212       C3182   1.478       .  S
C213        O218   1.268       .  A
C213        O216   1.264       .  A
C213       C3196   1.493       .  S
Cd214       O221   2.404       .  S
Cd214       O220   2.442       .  S
Cd214       O219   2.458       .  S
Cd214       O215   2.474       .  S
Cd214       O218   2.509       .  S
Cd214       O216   2.489       .  S
C217        O221   1.264       .  A
C217       C3224   1.488       .  S
O222        C225   1.268       .  A
O222       Cd227   2.494       .  S
C223        O232   1.268       .  A
C223        O228   1.267       .  A
C223       C3213   1.488       .  S
O224        C230   1.272       .  A
O224       Cd227   2.516       .  S
C225        O233   1.261       .  A
C225       C3154   1.476   1_554  S
C226        O231   1.269       .  A
C226        O229   1.264       .  A
C226       C3297   1.494   1_554  S
Cd227       O234   2.417       .  S
Cd227       O233   2.437       .  S
Cd227       O232   2.459       .  S
Cd227       O228   2.478       .  S
Cd227       O231   2.512       .  S
Cd227       O229   2.478       .  S
C230        O234   1.264       .  A
C230       C3171   1.488       .  S
O235        C238   1.267       .  A
O235       Cd240   2.469       .  S
C236        O245   1.260       .  A
C236        O241   1.266       .  A
C236       C3115   1.487       .  S
O237        C243   1.268       .  A
O237       Cd240   2.506       .  S
C238        O246   1.266       .  A
C238       C3126   1.484       .  S
C239        O244   1.268       .  A
C239        O242   1.265       .  A
C239       C3140   1.491       .  S
Cd240       O247   2.504       .  S
Cd240       O246   2.446       .  S
Cd240       O245   2.474       .  S
Cd240       O241   2.485       .  S
Cd240       O244   2.465       .  S
Cd240       O242   2.487       .  S
C243        O247   1.264       .  A
C243       C3199   1.497       .  S
O248        C251   1.263       .  A
O248       Cd253   2.454       .  S
C249        O258   1.265       .  A
C249        O254   1.269       .  A
C249       C3129   1.487       .  S
O250        C256   1.264       .  A
O250       Cd253   2.486       .  S
C251        O259   1.266       .  A
C251       C3073   1.483       .  S
C252        O257   1.269       .  A
C252        O255   1.264       .  A
C252       C3084   1.493       .  S
Cd253       O260   2.484       .  S
Cd253       O259   2.479       .  S
Cd253       O258   2.427       .  S
Cd253       O254   2.503       .  S
Cd253       O257   2.524       .  S
Cd253       O255   2.439       .  S
C256        O260   1.264       .  A
C256       C3098   1.491       .  S
O261        C264   1.267       .  A
O261       Cd266   2.496       .  S
C262        O271   1.268       .  A
C262        O267   1.269       .  A
C262       C3042   1.478       .  S
O263        C269   1.270       .  A
O263       Cd266   2.474       .  S
C264        O272   1.260       .  A
C264       C3028   1.484       .  S
C265        O270   1.267       .  A
C265        O268   1.263       .  A
C265       C3087   1.488       .  S
Cd266       O273   2.449       .  S
Cd266       O272   2.459       .  S
Cd266       O271   2.424       .  S
Cd266       O267   2.470       .  S
Cd266       O270   2.517       .  S
Cd266       O268   2.464       .  S
C269        O273   1.263       .  A
C269       C3056   1.481       .  S
O274        C277   1.266       .  A
O274       Cd279   2.487       .  S
C275        O284   1.267       .  A
C275        O280   1.267       .  A
C275       C3045   1.479       .  S
O276        C282   1.271       .  A
O276       Cd279   2.464       .  S
C277        O285   1.260       .  A
C277       C3000   1.476       .  S
C278        O283   1.266       .  A
C278        O281   1.264       .  A
C278       C3392   1.490       .  S
Cd279       O286   2.432       .  S
Cd279       O285   2.448       .  S
Cd279       O284   2.422       .  S
Cd279       O280   2.461       .  S
Cd279       O283   2.513       .  S
Cd279       O281   2.460       .  S
C282        O286   1.263       .  A
C282       C3014   1.480       .  S
O287        C290   1.268       .  A
O287       Cd292   2.486       .  S
C288        O297   1.266       .  A
C288        O293   1.261       .  A
C288       C2958   1.480       .  S
O289        C295   1.266       .  A
O289       Cd292   2.503       .  S
C290        O298   1.268       .  A
C290       C2972   1.490       .  S
C291        O296   1.265       .  A
C291        O294   1.269       .  A
C291       C2986   1.480       .  S
Cd292       O299   2.450       .  S
Cd292       O298   2.457       .  S
Cd292       O297   2.485       .  S
Cd292       O293   2.459       .  S
Cd292       O296   2.399       .  S
Cd292       O294   2.498       .  S
C295        O299   1.264       .  A
C295       C3255   1.486       .  S
O300        C303   1.269       .  A
O300       Cd305   2.545       .  S
C301        O310   1.268       .  A
C301        O306   1.270       .  A
C301       C2975   1.489       .  S
O302        C308   1.272       .  A
O302       Cd305   2.546       .  S
C303        O311   1.261       .  A
C303       C2933   1.488       .  S
C304        O309   1.269       .  A
C304        O307   1.265       .  A
C304       C3350   1.500       .  S
Cd305       O312   2.428       .  S
Cd305       O311   2.427       .  S
Cd305       O310   2.452       .  S
Cd305       O306   2.491       .  S
Cd305       O309   2.510       .  S
Cd305       O307   2.510       .  S
C308        O312   1.264       .  A
C308       C2944   1.492       .  S
O313        C316   1.266       .  A
O313       Cd318   2.492       .  S
C314        O323   1.264       .  A
C314        O319   1.262       .  A
C314       C2888   1.476       .  S
O315        C321   1.266       .  A
O315       Cd318   2.495       .  S
C316        O324   1.267       .  A
C316       C2919   1.489       .  S
C317        O322   1.268       .  A
C317        O320   1.264       .  A
C317       C2902   1.497       .  S
Cd318       O325   2.485       .  S
Cd318       O324   2.461       .  S
Cd318       O323   2.461       .  S
Cd318       O319   2.449       .  S
Cd318       O322   2.511       .  S
Cd318       O320   2.482       .  S
C321        O325   1.266       .  A
C321       C2930   1.494       .  S
O326        C329   1.268       .  A
O326       Cd331   2.465       .  S
C327        O336   1.260       .  A
C327        O332   1.265       .  A
C327       C2860   1.480   1_545  S
O328        C334   1.269       .  A
O328       Cd331   2.519       .  S
C329        O337   1.271       .  A
C329       C2916   1.491       .  S
C330        O335   1.267       .  A
C330        O333   1.263       .  A
C330       C2874   1.496   1_545  S
Cd331       O338   2.444       .  S
Cd331       O337   2.477       .  S
Cd331       O336   2.423       .  S
Cd331       O332   2.509       .  S
Cd331       O335   2.552       .  S
Cd331       O333   2.458       .  S
C334        O338   1.263       .  A
C334       C3339   1.490       .  S
O339        C342   1.264       .  A
O339       Cd344   2.470       .  S
C340        O349   1.267       .  A
C340        O345   1.267       .  A
C340       C2832   1.489       .  S
O341        C347   1.267       .  A
O341       Cd344   2.518       .  S
C342        O350   1.264       .  A
C342       C3269   1.485       .  S
C343        O348   1.265       .  A
C343        O346   1.265       .  A
C343       C2846   1.492       .  S
Cd344       O351   2.471       .  S
Cd344       O350   2.463       .  S
Cd344       O349   2.451       .  S
Cd344       O345   2.489       .  S
Cd344       O348   2.456       .  S
Cd344       O346   2.518       .  S
C347        O351   1.265       .  A
C347       C2818   1.496       .  S
O352        C355   1.264       .  A
O352       Cd357   2.498       .  S
C353        O362   1.266       .  A
C353        O358   1.269       .  A
C353       C2835   1.482       .  S
O354        C360   1.269       .  A
O354       Cd357   2.511       .  S
C355        O363   1.261       .  A
C355       C2776   1.486       .  S
C356        O361   1.268       .  A
C356        O359   1.264       .  A
C356       C2804   1.492       .  S
Cd357       O364   2.483       .  S
Cd357       O363   2.461       .  S
Cd357       O362   2.446       .  S
Cd357       O358   2.479       .  S
Cd357       O361   2.471       .  S
Cd357       O359   2.487       .  S
C360        O364   1.264       .  A
C360       C2790   1.495       .  S
O365        C368   1.270       .  A
O365       Cd370   2.472       .  S
C366        O375   1.263       .  A
C366        O371   1.269       .  A
C366       C3325   1.484       .  S
O367        C373   1.272       .  A
O367       Cd370   2.510       .  S
C368        O376   1.267       .  A
C368       C2748   1.491       .  S
C369        O374   1.269       .  A
C369        O372   1.265       .  A
C369       C2821   1.494       .  S
Cd370       O377   2.400       .  S
Cd370       O376   2.475       .  S
Cd370       O375   2.422       .  S
Cd370       O371   2.530       .  S
Cd370       O374   2.521       .  S
Cd370       O372   2.455       .  S
C373        O377   1.264       .  A
C373       C2762   1.477       .  S
O378        C381   1.270       .  A
O378       Cd383   2.464       .  S
C379        O388   1.261       .  A
C379        O384   1.268       .  A
C379       C2723   1.491       .  S
O380        C386   1.270       .  A
O380       Cd383   2.482       .  S
C381        O389   1.267       .  A
C381       C2751   1.491       .  S
C382        O387   1.266       .  A
C382        O385   1.265       .  A
C382       C2877   1.493       .  S
Cd383       O390   2.437       .  S
Cd383       O389   2.482       .  S
Cd383       O388   2.456       .  S
Cd383       O384   2.534       .  S
Cd383       O387   2.510       .  S
Cd383       O385   2.493       .  S
C386        O390   1.263       .  A
C386       C2734   1.479       .  S
O391        C394   1.271       .  A
O391       Cd396   2.432       .  S
C392        O401   1.263       .  A
C392        O397   1.268       .  A
C392       C2692   1.488       .  S
O393        C399   1.272       .  A
O393       Cd396   2.504       .  S
C394        O402   1.266       .  A
C394       C2706   1.483       .  S
C395        O400   1.269       .  A
C395        O398   1.264       .  A
C395       C2793   1.493       .  S
Cd396       O403   2.441       .  S
Cd396       O402   2.455       .  S
Cd396       O401   2.435       .  S
Cd396       O397   2.532       .  S
Cd396       O400   2.496       .  S
Cd396       O398   2.480       .  S
C399        O403   1.263       .  A
C399       C3112   1.487       .  S
O404        C407   1.268       .  A
O404       Cd409   2.460       .  S
C405        O414   1.264       .  A
C405        O410   1.263       .  A
C405       C2664   1.486       .  S
O406        C412   1.269       .  A
O406       Cd409   2.471       .  S
C407        O415   1.264       .  A
C407       C2709   1.478       .  S
C408        O413   1.268       .  A
C408        O411   1.263       .  A
C408       C2678   1.495       .  S
Cd409       O416   2.468       .  S
Cd409       O415   2.451       .  S
Cd409       O414   2.496       .  S
Cd409       O410   2.479       .  S
Cd409       O413   2.499       .  S
Cd409       O411   2.468       .  S
C412        O416   1.263       .  A
C412       C3185   1.488       .  S
O417        C420   1.268       .  A
O417       Cd422   2.448       .  S
C418        O427   1.259       .  A
C418        O423   1.267       .  A
C418       C3059   1.479       .  S
O419        C425   1.271       .  A
O419       Cd422   2.473       .  S
C420        O428   1.267       .  A
C420       C2639   1.480       .  S
C421        O426   1.267       .  A
C421        O424   1.264       .  A
C421       C2622   1.490       .  S
Cd422       O429   2.450       .  S
Cd422       O428   2.461       .  S
Cd422       O427   2.438       .  S
Cd422       O423   2.518       .  S
Cd422       O426   2.502       .  S
Cd422       O424   2.493       .  S
C425        O429   1.265       .  A
C425       C2653   1.484       .  S
O430        C433   1.268       .  A
O430       Cd435   2.433       .  S
C431        O440   1.260       .  A
C431        O436   1.266       .  A
C431       C2597   1.491   1_554  S
O432        C438   1.269       .  A
O432       Cd435   2.506       .  S
C433        O441   1.268       .  A
C433       C2636   1.486       .  S
C434        O439   1.266       .  A
C434        O437   1.262       .  A
C434       C2905   1.489   1_554  S
Cd435       O442   2.436       .  S
Cd435       O441   2.488       .  S
Cd435       O440   2.483       .  S
Cd435       O436   2.514       .  S
Cd435       O439   2.488       .  S
Cd435       O437   2.505       .  S
C438        O442   1.264       .  A
C438       C2608   1.488       .  S
O443        C446   1.268       .  A
O443       Cd448   2.489       .  S
C444        O453   1.260       .  A
C444        O449   1.265       .  A
C444       C3017   1.482       .  S
O445        C451   1.268       .  A
O445       Cd448   2.488       .  S
C446        O454   1.267       .  A
C446       C2566   1.488       .  S
C447        O452   1.267       .  A
C447        O450   1.263       .  A
C447       C2625   1.493       .  S
Cd448       O455   2.447       .  S
Cd448       O454   2.450       .  S
Cd448       O453   2.470       .  S
Cd448       O449   2.484       .  S
Cd448       O452   2.495       .  S
Cd448       O450   2.488       .  S
C451        O455   1.265       .  A
C451       C2583   1.485       .  S
O456        C459   1.270       .  A
O456       Cd461   2.484       .  S
C457        O466   1.259       .  A
C457        O462   1.268       .  A
C457       C2538   1.487       .  S
O458        C464   1.271       .  A
O458       Cd461   2.488       .  S
C459        O467   1.267       .  A
C459       C2569   1.487       .  S
C460        O465   1.266       .  A
C460        O463   1.265       .  A
C460       C2681   1.497       .  S
Cd461       O468   2.450       .  S
Cd461       O467   2.452       .  S
Cd461       O466   2.424       .  S
Cd461       O462   2.549       .  S
Cd461       O465   2.513       .  S
Cd461       O463   2.491       .  S
C464        O468   1.264       .  A
C464       C2555   1.480       .  S
O469        C472   1.268       .  A
O469       Cd474   2.484       .  S
C470        O479   1.265       .  A
C470        O475   1.263       .  A
C470       C3423   1.482       .  S
O471        C477   1.264       .  A
O471       Cd474   2.480       .  S
C472        O480   1.266       .  A
C472       C2524   1.486       .  S
C473        O478   1.265       .  A
C473        O476   1.269       .  A
C473       C2510   1.489       .  S
Cd474       O481   2.468       .  S
Cd474       O480   2.444       .  S
Cd474       O479   2.478       .  S
Cd474       O475   2.451       .  S
Cd474       O478   2.432       .  S
Cd474       O476   2.508       .  S
C477        O481   1.263       .  A
C477       C3532   1.488       .  S
O482        C485   1.268       .  A
O482       Cd487   2.506       .  S
C483        O492   1.265       .  A
C483        O488   1.264       .  A
C483       C2482   1.487       .  S
O484        C490   1.264       .  A
O484       Cd487   2.478       .  S
C485        O493   1.265       .  A
C485       C2527   1.489       .  S
C486        O491   1.268       .  A
C486        O489   1.264       .  A
C486       C2499   1.494       .  S
Cd487       O494   2.472       .  S
Cd487       O493   2.449       .  S
Cd487       O492   2.501       .  S
Cd487       O488   2.444       .  S
Cd487       O491   2.526       .  S
Cd487       O489   2.446       .  S
C490        O494   1.265       .  A
C490       C3577   1.489       .  S
O495        C498   1.268       .  A
O495       Cd500   2.468       .  S
C496        O505   1.260       .  A
C496        O501   1.266       .  A
C496       C2454   1.483       .  S
O497        C503   1.268       .  A
O497       Cd500   2.456       .  S
C498        O506   1.265       .  A
C498       C2471   1.479       .  S
C499        O504   1.267       .  A
C499        O502   1.264       .  A
C499       C2496   1.491       .  S
Cd500       O507   2.461       .  S
Cd500       O506   2.435       .  S
Cd500       O505   2.468       .  S
Cd500       O501   2.474       .  S
Cd500       O504   2.505       .  S
Cd500       O502   2.469       .  S
C503        O507   1.264       .  A
C503       C3241   1.486       .  S
O508        C511   1.267       .  A
O508       Cd513   2.468       .  S
C509        O518   1.260       .  A
C509        O514   1.268       .  A
C509       C3868   1.484       .  S
O510        C516   1.269       .  A
O510       Cd513   2.462       .  S
C511        O519   1.268       .  A
C511       C2468   1.489       .  S
C512        O517   1.267       .  A
C512        O515   1.265       .  A
C512       C2440   1.496       .  S
Cd513       O520   2.453       .  S
Cd513       O519   2.470       .  S
Cd513       O518   2.443       .  S
Cd513       O514   2.505       .  S
Cd513       O517   2.525       .  S
Cd513       O515   2.468       .  S
C516        O520   1.264       .  A
C516       C2961   1.478       .  S
O521        C524   1.269       .  A
O521       Cd526   2.470       .  S
C522        O531   1.258       .  A
C522        O527   1.268       .  A
C522       C3731   1.482       .  S
O523        C529   1.270       .  A
O523       Cd526   2.506       .  S
C524        O532   1.268       .  A
C524       C2412   1.493       .  S
C525        O530   1.266       .  A
C525        O528   1.264       .  A
C525       C2398   1.495       .  S
Cd526       O533   2.424       .  S
Cd526       O532   2.477       .  S
Cd526       O531   2.446       .  S
Cd526       O527   2.517       .  S
Cd526       O530   2.495       .  S
Cd526       O528   2.520       .  S
C529        O533   1.264       .  A
C529       C2429   1.482       .  S
O534        C537   1.270       .  A
O534       Cd539   2.467       .  S
C535        O544   1.262       .  A
C535        O540   1.269       .  A
C535       C3367   1.490       .  S
O536        C542   1.272       .  A
O536       Cd539   2.477       .  S
C537        O545   1.266       .  A
C537       C2415   1.489       .  S
C538        O543   1.267       .  A
C538        O541   1.265       .  A
C538       C2513   1.487       .  S
Cd539       O546   2.388       .  S
Cd539       O545   2.474       .  S
Cd539       O544   2.468       .  S
Cd539       O540   2.521       .  S
Cd539       O543   2.500       .  S
Cd539       O541   2.462       .  S
C542        O546   1.262       .  A
C542       C2384   1.477       .  S
O547        C550   1.268       .  A
O547       Cd552   2.484       .  S
C548        O557   1.265       .  A
C548        O553   1.260       .  A
C548       C2342   1.482       .  S
O549        C555   1.268       .  A
O549       Cd552   2.468       .  S
C550        O558   1.266       .  A
C550       C2370   1.482       .  S
C551        O556   1.266       .  A
C551        O554   1.265       .  A
C551       C2356   1.489       .  S
Cd552       O559   2.452       .  S
Cd552       O558   2.441       .  S
Cd552       O557   2.468       .  S
Cd552       O553   2.481       .  S
Cd552       O556   2.503       .  S
Cd552       O554   2.473       .  S
C555        O559   1.264       .  A
C555       C3031   1.482       .  S
O560        C563   1.268       .  A
O560       Cd565   2.476       .  S
C561        O570   1.263       .  A
C561        O566   1.268       .  A
C561       C3689   1.477       .  S
O562        C568   1.263       .  A
O562       Cd565   2.395       .  S
C563        O571   1.268       .  A
C563       C2373   1.488       .  S
C564        O569   1.270       .  A
C564        O567   1.265       .  A
C564       C2401   1.496       .  S
Cd565       O572   2.531       .  S
Cd565       O571   2.441       .  S
Cd565       O570   2.440       .  S
Cd565       O566   2.475       .  S
Cd565       O569   2.505       .  S
Cd565       O567   2.483       .  S
C568        O572   1.272       .  A
C568       C3070   1.487       .  S
O573        C576   1.270       .  A
O573       Cd578   2.476       .  S
C574        O583   1.260       .  A
C574        O579   1.266       .  A
C574       C3924   1.486       .  S
O575        C581   1.267       .  A
O575       Cd578   2.478       .  S
C576        O584   1.267       .  A
C576       C2314   1.485       .  S
C577        O582   1.265       .  A
C577        O580   1.264       .  A
C577       C2443   1.492       .  S
Cd578       O585   2.425       .  S
Cd578       O584   2.468       .  S
Cd578       O583   2.478       .  S
Cd578       O579   2.491       .  S
Cd578       O582   2.495       .  S
Cd578       O580   2.495       .  S
C581        O585   1.263       .  A
C581       C2331   1.481       .  S
O586        C589   1.269       .  A
O586       Cd591   2.447       .  S
C587        O596   1.262       .  A
C587        O592   1.264       .  A
C587       C3227   1.488       .  S
O588        C594   1.262       .  A
O588       Cd591   2.484       .  S
C589        O597   1.266       .  A
C589       C2317   1.488       .  S
C590        O595   1.269       .  A
C590        O593   1.264       .  A
C590       C2286   1.493       .  S
Cd591       O598   2.471       .  S
Cd591       O597   2.472       .  S
Cd591       O596   2.478       .  S
Cd591       O592   2.495       .  S
Cd591       O595   2.497       .  S
Cd591       O593   2.462       .  S
C594        O598   1.267       .  A
C594       C2300   1.489       .  S
O599        C602   1.268       .  A
O599       Cd604   2.478       .  S
C600        O609   1.262       .  A
C600        O605   1.267       .  A
C600       C2261   1.481       .  S
O601        C607   1.270       .  A
O601       Cd604   2.520       .  S
C602        O610   1.269       .  A
C602       C2272   1.491       .  S
C603        O608   1.268       .  A
C603        O606   1.265       .  A
C603       C2359   1.492       .  S
Cd604       O611   2.411       .  S
Cd604       O610   2.463       .  S
Cd604       O609   2.422       .  S
Cd604       O605   2.509       .  S
Cd604       O608   2.524       .  S
Cd604       O606   2.447       .  S
C607        O611   1.263       .  A
C607       C3465   1.481       .  S
O612        C615   1.270       .  A
O612       Cd617   2.502       .  S
C613        O622   1.265       .  A
C613        O618   1.263       .  A
C613       C3168   1.495       .  S
O614        C620   1.267       .  A
O614       Cd617   2.476       .  S
C615        O623   1.266       .  A
C615       C2275   1.486       .  S
C616        O621   1.268       .  A
C616        O619   1.265       .  A
C616       C2289   1.491       .  S
Cd617       O624   2.481       .  S
Cd617       O623   2.446       .  S
Cd617       O622   2.517       .  S
Cd617       O618   2.479       .  S
Cd617       O621   2.486       .  S
Cd617       O619   2.485       .  S
C620        O624   1.263       .  A
C620       C3745   1.484       .  S
O625        C628   1.267       .  A
O625       Cd630   2.529       .  S
C626        O635   1.267       .  A
C626        O631   1.269       .  A
C626       C2230   1.495       .  S
O627        C633   1.269       .  A
O627       Cd630   2.494       .  S
C628        O636   1.260       .  A
C628       C2807   1.490       .  S
C629        O634   1.266       .  A
C629        O632   1.264       .  A
C629       C2216   1.495       .  S
Cd630       O637   2.421       .  S
Cd630       O636   2.471       .  S
Cd630       O635   2.500       .  S
Cd630       O631   2.478       .  S
Cd630       O634   2.538       .  S
Cd630       O632   2.474       .  S
C633        O637   1.264       .  A
C633       C2244   1.483       .  S
O638        C641   1.265       .  A
O638       Cd643   2.513       .  S
C639        O648   1.266       .  A
C639        O644   1.269       .  A
C639       C2233   1.494       .  S
O640        C646   1.267       .  A
O640       Cd643   2.492       .  S
C641        O649   1.262       .  A
C641       C2426   1.490       .  S
C642        O647   1.266       .  A
C642        O645   1.264       .  A
C642       C2188   1.494       .  S
Cd643       O650   2.450       .  S
Cd643       O649   2.464       .  S
Cd643       O648   2.493       .  S
Cd643       O644   2.488       .  S
Cd643       O647   2.523       .  S
Cd643       O645   2.465       .  S
C646        O650   1.264       .  A
C646       C2202   1.487       .  S
O651        C654   1.269       .  A
O651       Cd656   2.498       .  S
C652        O661   1.267       .  A
C652        O657   1.270       .  A
C652       C2177   1.489       .  S
O653        C659   1.273       .  A
O653       Cd656   2.501       .  S
C654        O662   1.263       .  A
C654       C2146   1.483       .  S
C655        O660   1.269       .  A
C655        O658   1.265       .  A
C655       C2163   1.493       .  S
Cd656       O663   2.411       .  S
Cd656       O662   2.447       .  S
Cd656       O661   2.471       .  S
Cd656       O657   2.464       .  S
Cd656       O660   2.489       .  S
Cd656       O658   2.486       .  S
C659        O663   1.264       .  A
C659       C2485   1.482       .  S
O664        C667   1.271       .  A
O664       Cd669   2.464       .  S
C665        O674   1.261       .  A
C665        O670   1.269       .  A
C665       C2849   1.491   1_545  S
O666        C672   1.267       .  A
O666       Cd669   2.518       .  S
C667        O675   1.267       .  A
C667       C2174   1.489       .  S
C668        O673   1.272       .  A
C668        O671   1.263       .  A
C668       C2457   1.475       .  S
Cd669       O676   2.476       .  S
Cd669       O675   2.469       .  S
Cd669       O674   2.449       .  S
Cd669       O670   2.537       .  S
Cd669       O673   2.477       .  S
Cd669       O671   2.422       .  S
C672        O676   1.265       .  A
C672       C2219   1.493       .  S
O677        C680   1.270       .  A
O677       Cd682   2.456       .  S
C678        O687   1.261       .  A
C678        O683   1.268       .  A
C678       C2650   1.480       .  S
O679        C685   1.267       .  A
O679       Cd682   2.493       .  S
C680        O688   1.266       .  A
C680       C2132   1.485       .  S
C681        O686   1.272       .  A
C681        O684   1.263       .  A
C681       C2345   1.477       .  S
Cd682       O689   2.471       .  S
Cd682       O688   2.454       .  S
Cd682       O687   2.450       .  S
Cd682       O683   2.490       .  S
Cd682       O686   2.472       .  S
Cd682       O684   2.403       .  S
C685        O689   1.266       .  A
C685       C2118   1.490       .  S
O690        C693   1.265       .  A
O690       Cd695   2.443       .  S
C691        O700   1.264       .  A
C691        O696   1.270       .  A
C691       C2135   1.489       .  S
O692        C698   1.264       .  A
O692       Cd695   2.484       .  S
C693        O701   1.266       .  A
C693       C2090   1.490       .  S
C694        O699   1.269       .  A
C694        O697   1.264       .  A
C694       C2107   1.491       .  S
Cd695       O702   2.459       .  S
Cd695       O701   2.519       .  S
Cd695       O700   2.459       .  S
Cd695       O696   2.478       .  S
Cd695       O699   2.483       .  S
Cd695       O697   2.484       .  S
C698        O702   1.264       .  A
C698       C2258   1.486       .  S
O703        C706   1.260       .  A
O703       Cd708   2.428       .  S
C704        O713   1.267       .  A
C704        O709   1.268       .  A
C704       C2079   1.484       .  S
O705        C711   1.265       .  A
O705       Cd708   2.459       .  S
C706        O714   1.265       .  A
C706       C2065   1.485       .  S
C707        O712   1.266       .  A
C707        O710   1.263       .  A
C707       C2160   1.490       .  S
Cd708       O715   2.497       .  S
Cd708       O714   2.525       .  S
Cd708       O713   2.466       .  S
Cd708       O709   2.451       .  S
Cd708       O712   2.487       .  S
Cd708       O710   2.494       .  S
C711        O715   1.268       .  A
C711       C2541   1.492       .  S
O716        C719   1.269       .  A
O716       Cd721   2.447       .  S
C717        O726   1.261       .  A
C717        O722   1.267       .  A
C717       C2303   1.484       .  S
O718        C724   1.267       .  A
O718       Cd721   2.480       .  S
C719        O727   1.267       .  A
C719       C2076   1.485       .  S
C720        O725   1.271       .  A
C720        O723   1.264       .  A
C720       C2667   1.483       .  S
Cd721       O728   2.498       .  S
Cd721       O727   2.470       .  S
Cd721       O726   2.449       .  S
Cd721       O722   2.517       .  S
Cd721       O725   2.518       .  S
Cd721       O723   2.401       .  S
C724        O728   1.263       .  A
C724       C2048   1.489       .  S
O729        C732   1.269       .  A
O729       Cd734   2.475       .  S
C730        O739   1.261       .  A
C730        O735   1.268       .  A
C730       C2328   1.478       .  S
O731        C737   1.267       .  A
O731       Cd734   2.498       .  S
C732        O740   1.267       .  A
C732       C2020   1.483       .  S
C733        O738   1.271       .  A
C733        O736   1.264       .  A
C733       C2037   1.482       .  S
Cd734       O741   2.471       .  S
Cd734       O740   2.430       .  S
Cd734       O739   2.419       .  S
Cd734       O735   2.522       .  S
Cd734       O738   2.494       .  S
Cd734       O736   2.448       .  S
C737        O741   1.265       .  A
C737       C2051   1.489       .  S
O742        C745   1.262       .  A
O742       Cd747   2.455       .  S
C743        O752   1.265       .  A
C743        O748   1.267       .  A
C743       C2023   1.486       .  S
O744        C750   1.267       .  A
O744       Cd747   2.475       .  S
C745        O753   1.265       .  A
C745       C2611   1.488       .  S
C746        O751   1.266       .  A
C746        O749   1.265       .  A
C746       C2121   1.491       .  S
Cd747       O754   2.450       .  S
Cd747       O753   2.505       .  S
Cd747       O752   2.454       .  S
Cd747       O748   2.493       .  S
Cd747       O751   2.506       .  S
Cd747       O749   2.451       .  S
C750        O754   1.265       .  A
C750       C2006   1.483       .  S
O755        C758   1.266       .  A
O755       Cd760   2.458       .  S
C756        O765   1.265       .  A
C756        O761   1.262       .  A
C756       C2387   1.479       .  S
O757        C763   1.267       .  A
O757       Cd760   2.504       .  S
C758        O766   1.267       .  A
C758       C1992   1.482       .  S
C759        O764   1.266       .  A
C759        O762   1.265       .  A
C759       C2863   1.485       .  S
Cd760       O767   2.460       .  S
Cd760       O766   2.443       .  S
Cd760       O765   2.426       .  S
Cd760       O761   2.482       .  S
Cd760       O764   2.453       .  S
Cd760       O762   2.465       .  S
C763        O767   1.264       .  A
C763       C2191   1.492       .  S
O768        C771   1.264       .  A
O768       Cd773   2.473       .  S
C769        O778   1.265       .  A
C769        O774   1.267       .  A
C769       C1995   1.479       .  S
O770        C776   1.267       .  A
O770       Cd773   2.470       .  S
C771        O779   1.264       .  A
C771       C1978   1.482       .  S
C772        O777   1.269       .  A
C772        O775   1.263       .  A
C772       C2104   1.491       .  S
Cd773       O780   2.512       .  S
Cd773       O779   2.469       .  S
Cd773       O778   2.429       .  S
Cd773       O774   2.482       .  S
Cd773       O777   2.499       .  S
Cd773       O775   2.470       .  S
C776        O780   1.265       .  A
C776       C2720   1.495       .  S
O781        C784   1.269       .  A
O781       Cd786   2.485       .  S
C782        O791   1.259       .  A
C782        O787   1.267       .  A
C782       C1939   1.478       .  S
O783        C789   1.270       .  A
O783       Cd786   2.486       .  S
C784        O792   1.266       .  A
C784       C1967   1.482       .  S
C785        O790   1.266       .  A
C785        O788   1.264       .  A
C785       C1950   1.483       .  S
Cd786       O793   2.404       .  S
Cd786       O792   2.444       .  S
Cd786       O791   2.439       .  S
Cd786       O787   2.510       .  S
Cd786       O790   2.488       .  S
Cd786       O788   2.450       .  S
C789        O793   1.265       .  A
C789       C1981   1.477       .  S
O794        C797   1.269       .  A
O794       Cd799   2.470       .  S
C795        O804   1.268       .  A
C795        O800   1.262   1_655  A
C795       C3493   1.484       .  S
O796        C802   1.263       .  A
O796       Cd799   2.439       .  S
C797        O805   1.267       .  A
C797       C1964   1.483       .  S
C798        O803   1.268       .  A
C798        O801   1.264       .  A
C798       C1925   1.488   1_455  S
Cd799       O806   2.511       .  S
Cd799       O805   2.416       .  S
Cd799       O804   2.521   1_455  S
Cd799       O800   2.434       .  S
Cd799       O803   2.482       .  S
Cd799       O801   2.481       .  S
C802        O806   1.271       .  A
C802       C2093   1.489       .  S
O807        C810   1.268       .  A
O807       Cd812   2.478       .  S
C808        O817   1.266       .  A
C808        O813   1.261       .  A
C808       C2205   1.490       .  S
O809        C815   1.266       .  A
O809       Cd812   2.468       .  S
C810        O818   1.265       .  A
C810       C1908   1.491       .  S
C811        O816   1.266       .  A
C811        O814   1.264       .  A
C811       C1894   1.490       .  S
Cd812       O819   2.460       .  S
Cd812       O818   2.494       .  S
Cd812       O817   2.521       .  S
Cd812       O813   2.454       .  S
Cd812       O816   2.506       .  S
Cd812       O814   2.469       .  S
C815        O819   1.266       .  A
C815       C3700   1.487       .  S
O820        C823   1.269       .  A
O820       Cd825   2.522       .  S
C821        O830   1.267       .  A
C821        O826   1.270       .  A
C821       C1911   1.494       .  S
O822        C828   1.266       .  A
O822       Cd825   2.498       .  S
C823        O831   1.261       .  A
C823       C1866   1.487       .  S
C824        O829   1.270       .  A
C824        O827   1.264       .  A
C824       C3787   1.477       .  S
Cd825       O832   2.467       .  S
Cd825       O831   2.443       .  S
Cd825       O830   2.481       .  S
Cd825       O826   2.481       .  S
Cd825       O829   2.487       .  S
Cd825       O827   2.401       .  S
C828        O832   1.265       .  A
C828       C1880   1.487       .  S
O833        C836   1.268       .  A
O833       Cd838   2.464       .  S
C834        O843   1.266       .  A
C834        O839   1.260       .  A
C834       C2247   1.482       .  S
O835        C841   1.265       .  A
O835       Cd838   2.459       .  S
C836        O844   1.267       .  A
C836       C1838   1.481       .  S
C837        O842   1.267       .  A
C837        O840   1.264       .  A
C837       C1897   1.490       .  S
Cd838       O845   2.461       .  S
Cd838       O844   2.449       .  S
Cd838       O843   2.527       .  S
Cd838       O839   2.428       .  S
Cd838       O842   2.512       .  S
Cd838       O840   2.452       .  S
C841        O845   1.270       .  A
C841       C1852   1.480       .  S
O846        C849   1.267       .  A
O846       Cd851   2.486       .  S
C847        O856   1.264       .  A
C847        O852   1.263       .  A
C847       C3451   1.488       .  S
O848        C854   1.265       .  A
O848       Cd851   2.473       .  S
C849        O857   1.265       .  A
C849       C1841   1.482       .  S
C850        O855   1.267       .  A
C850        O853   1.263       .  A
C850       C1922   1.490       .  S
Cd851       O858   2.490       .  S
Cd851       O857   2.436       .  S
Cd851       O856   2.487       .  S
Cd851       O852   2.474       .  S
Cd851       O855   2.493       .  S
Cd851       O853   2.473       .  S
C854        O858   1.267       .  A
C854       C1824   1.491       .  S
O859        C862   1.268       .  A
O859       Cd864   2.465       .  S
C860        O869   1.261       .  A
C860        O865   1.265       .  A
C860       C1796   1.483       .  S
O861        C867   1.269       .  A
O861       Cd864   2.477       .  S
C862        O870   1.266       .  A
C862       C1810   1.484       .  S
C863        O868   1.265       .  A
C863        O866   1.264       .  A
C863       C1883   1.491       .  S
Cd864       O871   2.422       .  S
Cd864       O870   2.470       .  S
Cd864       O869   2.481       .  S
Cd864       O865   2.489       .  S
Cd864       O868   2.508       .  S
Cd864       O866   2.470       .  S
C867        O871   1.264       .  A
C867       C2062   1.480       .  S
O872        C875   1.269       .  A
O872       Cd877   2.458       .  S
C873        O882   1.266       .  A
C873        O878   1.260       .  A
C873       C3605   1.491       .  S
O874        C880   1.264       .  A
O874       Cd877   2.455       .  S
C875        O883   1.265       .  A
C875       C1813   1.486       .  S
C876        O881   1.267       .  A
C876        O879   1.264       .  A
C876       C1782   1.496       .  S
Cd877       O884   2.459       .  S
Cd877       O883   2.464       .  S
Cd877       O882   2.500       .  S
Cd877       O878   2.489       .  S
Cd877       O881   2.522       .  S
Cd877       O879   2.472       .  S
C880        O884   1.269       .  A
C880       C2149   1.484       .  S
O885        C888   1.268       .  A
O885       Cd890   2.486       .  S
C886        O895   1.261       .  A
C886        O891   1.267       .  A
C886       C2034   1.491       .  S
O887        C893   1.268       .  A
O887       Cd890   2.450       .  S
C888        O896   1.266       .  A
C888       C1768   1.488       .  S
C889        O894   1.265       .  A
C889        O892   1.265       .  A
C889       C1757   1.492       .  S
Cd890       O897   2.448       .  S
Cd890       O896   2.452       .  S
Cd890       O895   2.477       .  S
Cd890       O891   2.498       .  S
Cd890       O894   2.511       .  S
Cd890       O892   2.471       .  S
C893        O897   1.263       .  A
C893       C3885   1.482       .  S
O898        C901   1.268       .  A
O898       Cd903   2.466       .  S
C899        O908   1.264       .  A
C899        O904   1.262       .  A
C899       C1740   1.489   1_545  S
O900        C906   1.269       .  A
O900       Cd903   2.470       .  S
C901        O909   1.265       .  A
C901       C1771   1.479       .  S
C902        O907   1.267       .  A
C902        O905   1.265       .  A
C902       C1953   1.489   1_545  S
Cd903       O910   2.457       .  S
Cd903       O909   2.438       .  S
Cd903       O908   2.504       .  S
Cd903       O904   2.467       .  S
Cd903       O907   2.503       .  S
Cd903       O905   2.447       .  S
C906        O910   1.262       .  A
C906       C3507   1.486       .  S
O911        C914   1.269       .  A
O911       Cd916   2.463       .  S
C912        O921   1.261       .  A
C912        O917   1.268       .  A
C912       C2009   1.487       .  S
O913        C919   1.271       .  A
O913       Cd916   2.509       .  S
C914        O922   1.268       .  A
C914       C1712   1.492       .  S
C915        O920   1.267       .  A
C915        O918   1.265       .  A
C915       C1754   1.488       .  S
Cd916       O923   2.398       .  S
Cd916       O922   2.483       .  S
Cd916       O921   2.420       .  S
Cd916       O917   2.534       .  S
Cd916       O920   2.506       .  S
Cd916       O918   2.457       .  S
C919        O923   1.264       .  A
C919       C1726   1.480       .  S
O924        C927   1.270       .  A
O924       Cd929   2.474       .  S
C925        O934   1.261       .  A
C925        O930   1.269       .  A
C925       C3647   1.487       .  S
O926        C932   1.272       .  A
O926       Cd929   2.502       .  S
C927        O935   1.268       .  A
C927       C1715   1.492       .  S
C928        O933   1.267       .  A
C928        O931   1.266       .  A
C928       C1785   1.492       .  S
Cd929       O936   2.378       .  S
Cd929       O935   2.476       .  S
Cd929       O934   2.441       .  S
Cd929       O930   2.510       .  S
Cd929       O933   2.509       .  S
Cd929       O931   2.477       .  S
C932        O936   1.262       .  A
C932       C1698   1.473       .  S
O937        C940   1.269       .  A
O937       Cd942   2.483       .  S
C938        O947   1.264       .  A
C938        O943   1.261       .  A
C938       C1656   1.486       .  S
O939        C945   1.262       .  A
O939       Cd942   2.468       .  S
C940        O948   1.268       .  A
C940       C1684   1.490       .  S
C941        O946   1.267       .  A
C941        O944   1.264       .  A
C941       C1670   1.497       .  S
Cd942       O949   2.508       .  S
Cd942       O948   2.448       .  S
Cd942       O947   2.512       .  S
Cd942       O943   2.454       .  S
Cd942       O946   2.525       .  S
Cd942       O944   2.474       .  S
C945        O949   1.269       .  A
C945       C3434   1.492       .  S
O950        C953   1.268       .  A
O950       Cd955   2.481       .  S
C951        O960   1.263       .  A
C951        O956   1.263       .  A
C951       C2989   1.481   1_554  S
O952        C958   1.266       .  A
O952       Cd955   2.498       .  S
C953        O961   1.268       .  A
C953       C1687   1.486       .  S
C954        O959   1.264       .  A
C954        O957   1.266       .  A
C954       C1645   1.493   1_554  S
Cd955       O962   2.465       .  S
Cd955       O961   2.459       .  S
Cd955       O960   2.452       .  S
Cd955       O956   2.479       .  S
Cd955       O959   2.486       .  S
Cd955       O957   2.491       .  S
C958        O962   1.263       .  A
C958       C3843   1.490       .  S
O963        C966   1.268       .  A
O963       Cd968   2.505       .  S
C964        O973   1.264       .  A
C964        O969   1.264       .  A
C964       C3563   1.486       .  S
O965        C971   1.267       .  A
O965       Cd968   2.512       .  S
C966        O974   1.265       .  A
C966       C1628   1.488       .  S
C967        O972   1.270       .  A
C967        O970   1.264       .  A
C967       C1614   1.497       .  S
Cd968       O975   2.469       .  S
Cd968       O974   2.447       .  S
Cd968       O973   2.478       .  S
Cd968       O969   2.479       .  S
Cd968       O972   2.514       .  S
Cd968       O970   2.469       .  S
C971        O975   1.264       .  A
C971       C3381   1.495       .  S
O976        C979   1.268       .  A
O976       Cd981   2.472       .  S
C977        O986   1.262       .  A
C977        O982   1.267       .  A
C977       C1600   1.485   1_455  S
O978        C984   1.271       .  A
O978       Cd981   2.483       .  S
C979        O987   1.268       .  A
C979       C1631   1.488       .  S
C980        O985   1.268       .  A
C980        O983   1.264       .  A
C980       C1673   1.497   1_455  S
Cd981       O988   2.429       .  S
Cd981       O987   2.452       .  S
Cd981       O986   2.464       .  S
Cd981       O982   2.510       .  S
Cd981       O985   2.546       .  S
Cd981       O983   2.463       .  S
C984        O988   1.262       .  A
C984       C3003   1.479       .  S
O989        C992   1.270       .  A
O989       Cd994   2.471       .  S
C990        O999   1.270       .  A
C990        O995   1.263       .  A
C990       C3829   1.486       .  S
O991        C997   1.263       .  A
O991       Cd994   2.418       .  S
C992       O1000   1.269       .  A
C992       C1572   1.489       .  S
C993        O998   1.269       .  A
C993        O996   1.266       .  A
C993       C1558   1.489       .  S
Cd994      O1001   2.543       .  S
Cd994      O1000   2.442       .  S
Cd994       O999   2.529       .  S
Cd994       O995   2.411       .  S
Cd994       O998   2.490       .  S
Cd994       O996   2.494       .  S
C997       O1001   1.272       .  A
C997       C1586   1.491       .  S
O1002      C1005   1.269       .  A
O1002     Cd1007   2.502       .  S
C1003      O1012   1.265       .  A
C1003      O1008   1.262       .  A
C1003      C2947   1.490       .  S
O1004      C1010   1.267       .  A
O1004     Cd1007   2.483       .  S
C1005      O1013   1.266       .  A
C1005      C1575   1.489       .  S
C1006      O1011   1.269       .  A
C1006      O1009   1.265       .  A
C1006      C1642   1.494       .  S
Cd1007     O1014   2.496       .  S
Cd1007     O1013   2.453       .  S
Cd1007     O1012   2.503       .  S
Cd1007     O1008   2.480       .  S
Cd1007     O1011   2.522       .  S
Cd1007     O1009   2.442       .  S
C1010      O1014   1.263       .  A
C1010      C1544   1.489       .  S
O1015      C1018   1.267       .  A
O1015     Cd1020   2.470       .  S
C1016      O1025   1.264       .  A
C1016      O1021   1.263       .  A
C1016      C3773   1.484       .  S
O1017      C1023   1.267       .  A
O1017     Cd1020   2.467       .  S
C1018      O1026   1.266       .  A
C1018      C1530   1.485       .  S
C1019      O1024   1.268       .  A
C1019      O1022   1.264       .  A
C1019      C1561   1.495       .  S
Cd1020     O1027   2.476       .  S
Cd1020     O1026   2.439       .  S
Cd1020     O1025   2.482       .  S
Cd1020     O1021   2.465       .  S
Cd1020     O1024   2.498       .  S
Cd1020     O1022   2.471       .  S
C1023      O1027   1.263       .  A
C1023      C3157   1.487       .  S
O1028      C1031   1.269       .  A
O1028     Cd1033   2.477       .  S
C1029      O1038   1.267       .  A
C1029      O1034   1.263       .  A
C1029      C1505   1.482       .  S
O1030      C1036   1.271       .  A
O1030     Cd1033   2.544       .  S
C1031      O1039   1.267       .  A
C1031      C1533   1.477       .  S
C1032      O1037   1.267       .  A
C1032      O1035   1.264       .  A
C1032      C1516   1.486       .  S
Cd1033     O1040   2.406       .  S
Cd1033     O1039   2.422       .  S
Cd1033     O1038   2.519       .  S
Cd1033     O1034   2.423       .  S
Cd1033     O1037   2.479       .  S
Cd1033     O1035   2.476       .  S
C1036      O1040   1.263       .  A
C1036      C3283   1.487       .  S
O1041      C1044   1.269       .  A
O1041     Cd1046   2.489       .  S
C1042      O1051   1.267       .  A
C1042      O1047   1.261       .  A
C1042      C3143   1.489       .  S
O1043      C1049   1.269       .  A
O1043     Cd1046   2.509       .  S
C1044      O1052   1.267       .  A
C1044      C1474   1.487       .  S
C1045      O1050   1.267       .  A
C1045      O1048   1.263       .  A
C1045      C1460   1.491       .  S
Cd1046     O1053   2.441       .  S
Cd1046     O1052   2.445       .  S
Cd1046     O1051   2.507       .  S
Cd1046     O1047   2.458       .  S
Cd1046     O1050   2.500       .  S
Cd1046     O1048   2.487       .  S
C1049      O1053   1.264       .  A
C1049      C1488   1.489       .  S
O1054      C1057   1.267       .  A
O1054     Cd1059   2.468       .  S
C1055      O1064   1.264       .  A
C1055      O1060   1.262       .  A
C1055      C3518   1.481       .  S
O1056      C1062   1.265       .  A
O1056     Cd1059   2.502       .  S
C1057      O1065   1.267       .  A
C1057      C1477   1.483       .  S
C1058      O1063   1.268       .  A
C1058      O1061   1.264       .  A
C1058      C1617   1.494       .  S
Cd1059     O1066   2.474       .  S
Cd1059     O1065   2.437       .  S
Cd1059     O1064   2.487       .  S
Cd1059     O1060   2.458       .  S
Cd1059     O1063   2.493       .  S
Cd1059     O1061   2.497       .  S
C1062      O1066   1.266       .  A
C1062      C1446   1.493       .  S
O1067      C1070   1.270       .  A
O1067     Cd1072   2.466       .  S
C1068      O1077   1.262       .  A
C1068      O1073   1.269       .  A
C1068      C1418   1.488       .  S
O1069      C1075   1.270       .  A
O1069     Cd1072   2.514       .  S
C1070      O1078   1.266       .  A
C1070      C1432   1.490       .  S
C1071      O1076   1.268       .  A
C1071      O1074   1.264       .  A
C1071      C1519   1.486       .  S
Cd1072     O1079   2.425       .  S
Cd1072     O1078   2.465       .  S
Cd1072     O1077   2.425       .  S
Cd1072     O1073   2.540       .  S
Cd1072     O1076   2.478       .  S
Cd1072     O1074   2.471       .  S
C1075      O1079   1.265       .  A
C1075      C3619   1.485       .  S
O1080      C1083   1.272       .  A
O1080     Cd1085   2.464       .  S
C1081      O1090   1.270       .  A
C1081      O1086   1.261       .  A
C1081      C3101   1.490       .  S
O1082      C1088   1.264       .  A
O1082     Cd1085   2.411       .  S
C1083      O1091   1.266       .  A
C1083      C1435   1.485       .  S
C1084      O1089   1.267       .  A
C1084      O1087   1.265       .  A
C1084      C1463   1.486       .  S
Cd1085     O1092   2.502       .  S
Cd1085     O1091   2.457       .  S
Cd1085     O1090   2.558       .  S
Cd1085     O1086   2.420       .  S
Cd1085     O1089   2.479       .  S
Cd1085     O1087   2.493       .  S
C1088      O1092   1.272       .  A
C1088      C3661   1.480       .  S
O1093      C1096   1.261       .  A
O1093     Cd1098   2.441       .  S
C1094      O1103   1.266       .  A
C1094      O1099   1.268       .  A
C1094      C1404   1.489       .  S
O1095      C1101   1.267       .  A
O1095     Cd1098   2.477       .  S
C1096      O1104   1.266       .  A
C1096      C1701   1.485       .  S
C1097      O1102   1.267       .  A
C1097      O1100   1.264       .  A
C1097      C1390   1.494       .  S
Cd1098     O1105   2.466       .  S
Cd1098     O1104   2.510       .  S
Cd1098     O1103   2.472       .  S
Cd1098     O1099   2.465       .  S
Cd1098     O1102   2.519       .  S
Cd1098     O1100   2.472       .  S
C1101      O1105   1.266       .  A
C1101      C1421   1.491       .  S
O1106      C1109   1.268       .  A
O1106     Cd1111   2.462       .  S
C1107      O1116   1.262       .  A
C1107      O1112   1.264       .  A
C1107      C2765   1.487       .  S
O1108      C1114   1.264       .  A
O1108     Cd1111   2.440       .  S
C1109      O1117   1.265       .  A
C1109      C1407   1.487       .  S
C1110      O1115   1.266       .  A
C1110      O1113   1.266       .  A
C1110      C1502   1.486       .  S
Cd1111     O1118   2.525       .  S
Cd1111     O1117   2.480       .  S
Cd1111     O1116   2.465       .  S
Cd1111     O1112   2.495       .  S
Cd1111     O1115   2.457       .  S
Cd1111     O1113   2.449       .  S
C1114      O1118   1.268       .  A
C1114      C1379   1.492       .  S
O1119      C1122   1.261   1_455  A
O1119     Cd1124   2.464       .  S
C1120      O1129   1.265       .  A
C1120      O1125   1.269       .  A
C1120      C1365   1.485       .  S
O1121      C1127   1.270       .  A
O1121     Cd1124   2.483       .  S
C1122      O1130   1.268   1_655  A
C1122      C1547   1.489       .  S
C1123      O1128   1.266       .  A
C1123      O1126   1.264       .  A
C1123      C1348   1.486   1_455  S
Cd1124     O1131   2.379       .  S
Cd1124     O1130   2.514       .  S
Cd1124     O1129   2.467       .  S
Cd1124     O1125   2.487       .  S
Cd1124     O1128   2.499       .  S
Cd1124     O1126   2.441       .  S
C1127      O1131   1.265       .  A
C1127      C2891   1.472       .  S
O1132      C1135   1.264       .  A
O1132     Cd1137   2.498       .  S
C1133      O1142   1.268       .  A
C1133      O1138   1.266       .  A
C1133      C1362   1.489       .  S
O1134      C1140   1.266       .  A
O1134     Cd1137   2.466       .  S
C1135      O1143   1.262       .  A
C1135      C1729   1.486       .  S
C1136      O1141   1.268       .  A
C1136      O1139   1.264       .  A
C1136      C1393   1.494       .  S
Cd1137     O1144   2.496       .  S
Cd1137     O1143   2.461       .  S
Cd1137     O1142   2.499       .  S
Cd1137     O1138   2.434       .  S
Cd1137     O1141   2.527       .  S
Cd1137     O1139   2.459       .  S
C1140      O1144   1.266       .  A
C1140      C2594   1.493       .  S
O1145      C1148   1.261       .  A
O1145     Cd1150   2.465       .  S
C1146      O1155   1.265       .  A
C1146      O1151   1.269       .  A
C1146      C1334   1.488       .  S
O1147      C1153   1.267       .  A
O1147     Cd1150   2.487       .  S
C1148      O1156   1.266       .  A
C1148      C1491   1.491       .  S
C1149      O1154   1.266       .  A
C1149      O1152   1.265       .  A
C1149      C1323   1.492       .  S
Cd1150     O1157   2.467       .  S
Cd1150     O1156   2.523       .  S
Cd1150     O1155   2.470       .  S
Cd1150     O1151   2.472       .  S
Cd1150     O1154   2.475       .  S
Cd1150     O1152   2.521       .  S
C1153      O1157   1.265       .  A
C1153      C2695   1.490       .  S
O1158      C1161   1.267       .  A
O1158     Cd1163   2.510       .  S
C1159      O1168   1.269       .  A
C1159      O1164   1.270       .  A
C1159      C1337   1.491       .  S
O1160      C1166   1.270       .  A
O1160     Cd1163   2.508       .  S
C1161      O1169   1.259       .  A
C1161      C1855   1.483       .  S
C1162      O1167   1.265       .  A
C1162      O1165   1.265       .  A
C1162      C1306   1.488       .  S
Cd1163     O1170   2.410       .  S
Cd1163     O1169   2.434       .  S
Cd1163     O1168   2.473       .  S
Cd1163     O1164   2.461       .  S
Cd1163     O1167   2.497       .  S
Cd1163     O1165   2.481       .  S
C1166      O1170   1.262       .  A
C1166      C2779   1.482       .  S
O1171      C1174   1.261       .  A
O1171     Cd1176   2.439       .  S
C1172      O1181   1.268       .  A
C1172      O1177   1.268       .  A
C1172      C1292   1.482       .  S
O1173      C1179   1.270       .  A
O1173     Cd1176   2.487       .  S
C1174      O1182   1.267       .  A
C1174      C2580   1.483       .  S
C1175      O1180   1.268       .  A
C1175      O1178   1.263       .  A
C1175      C1278   1.495       .  S
Cd1176     O1183   2.474       .  S
Cd1176     O1182   2.521       .  S
Cd1176     O1181   2.437       .  S
Cd1176     O1177   2.451       .  S
Cd1176     O1180   2.518       .  S
Cd1176     O1178   2.490       .  S
C1179      O1183   1.263       .  A
C1179      C1603   1.487       .  S
O1184      C1187   1.269       .  A
O1184     Cd1189   2.545       .  S
C1185      O1194   1.266       .  A
C1185      O1190   1.269       .  A
C1185      C1295   1.482       .  S
O1186      C1192   1.271       .  A
O1186     Cd1189   2.496       .  S
C1187      O1195   1.262       .  A
C1187      C1827   1.486   1_545  S
C1188      O1193   1.265       .  A
C1188      O1191   1.267       .  A
C1188      C1309   1.492       .  S
Cd1189     O1196   2.417       .  S
Cd1189     O1195   2.412       .  S
Cd1189     O1194   2.429       .  S
Cd1189     O1190   2.482       .  S
Cd1189     O1193   2.448       .  S
Cd1189     O1191   2.515       .  S
C1192      O1196   1.265       .  A
C1192      C1659   1.484       .  S
O1197      C1200   1.265       .  A
O1197     Cd1202   2.503       .  S
C1198      O1207   1.265       .  A
C1198      O1203   1.268       .  A
C1198      C1264   1.486       .  S
O1199      C1205   1.265       .  A
O1199     Cd1202   2.448       .  S
C1200      O1208   1.264       .  A
C1200      C1589   1.491       .  S
C1201      O1206   1.266       .  A
C1201      O1204   1.265       .  A
C1201      C1351   1.487       .  S
Cd1202     O1209   2.497       .  S
Cd1202     O1208   2.463       .  S
Cd1202     O1207   2.445       .  S
Cd1202     O1203   2.494       .  S
Cd1202     O1206   2.499       .  S
Cd1202     O1204   2.455       .  S
C1205      O1209   1.264       .  A
C1205      C1869   1.488       .  S
O1210      C1213   1.261       .  A
O1210     Cd1215   2.459       .  S
C1211      O1220   1.268       .  A
C1211      O1216   1.268       .  A
C1211      C1267   1.486       .  S
O1212      C1218   1.263       .  A
O1212     Cd1215   2.437       .  S
C1213      O1221   1.266       .  A
C1213      C2552   1.477       .  S
C1214      O1219   1.269       .  A
C1214      O1217   1.263       .  A
C1214      C1281   1.495       .  S
Cd1215     O1222   2.498       .  S
Cd1215     O1221   2.490       .  S
Cd1215     O1220   2.449       .  S
Cd1215     O1216   2.463       .  S
Cd1215     O1219   2.521       .  S
Cd1215     O1217   2.485       .  S
C1218      O1222   1.272       .  A
C1218      C1799   1.484       .  S
O1223      C1226   1.266       .  A
O1223     Cd1228   2.498       .  S
C1224      O1233   1.267       .  A
C1224      O1229   1.269       .  A
C1224      C1253   1.491       .  S
O1225      C1231   1.269       .  A
O1225     Cd1228   2.482       .  S
C1226      O1234   1.259       .  A
C1226      C2737   1.483   1_554  S
C1227      O1232   1.264       .  A
C1227      O1230   1.264       .  A
C1227      C1376   1.489   1_554  S
Cd1228     O1235   2.422       .  S
Cd1228     O1234   2.468       .  S
Cd1228     O1233   2.486       .  S
Cd1228     O1229   2.462       .  S
Cd1228     O1232   2.502       .  S
Cd1228     O1230   2.485       .  S
C1231      O1235   1.264       .  A
C1231      C1936   1.479       .  S
O1236      C1239   1.268       .  A
O1236     Cd1241   2.492       .  S
C1237      O1246   1.269       .  A
C1237      O1242   1.269       .  A
C1237      C1250   1.490       .  S
O1238      C1244   1.273       .  A
O1238     Cd1241   2.524       .  S
C1239      O1247   1.263       .  A
C1239      C1449   1.486       .  S
C1240      O1245   1.271       .  A
C1240      O1243   1.264       .  A
C1240      C1320   1.497       .  S
Cd1241     O1248   2.391       .  S
Cd1241     O1247   2.460       .  S
Cd1241     O1246   2.488       .  S
Cd1241     O1242   2.457       .  S
Cd1241     O1245   2.526       .  S
Cd1241     O1243   2.464       .  S
C1244      O1248   1.262       .  A
C1244      C1743   1.486       .  S
C1249      C1250   1.404       .  A
C1249      C1254   1.403       .  A
C1249      H1256   1.084       .  S
C1250      C1251   1.415       .  A
C1251      C1252   1.403       .  A
C1251      N1258   1.429       .  S
C1252      C1253   1.405       .  A
C1252      H1257   1.084       .  S
C1253      C1254   1.415       .  A
C1254      N1255   1.428       .  S
N1255      O1259   1.262       .  A
N1255      O1260   1.261       .  A
N1258      O1262   1.262       .  A
N1258      O1261   1.262       .  A
C1263      C1264   1.406       .  A
C1263      C1268   1.401       .  A
C1263      H1270   1.085       .  S
C1264      C1265   1.411       .  A
C1265      C1266   1.401       .  A
C1265      N1272   1.428       .  S
C1266      C1267   1.406       .  A
C1266      H1271   1.084       .  S
C1267      C1268   1.413       .  A
C1268      N1269   1.429       .  S
N1269      O1273   1.262       .  A
N1269      O1274   1.262       .  A
N1272      O1276   1.262       .  A
N1272      O1275   1.262       .  A
C1277      C1278   1.404       .  A
C1277      C1282   1.405       .  A
C1277      H1284   1.084       .  S
C1278      C1279   1.417       .  A
C1279      C1280   1.407       .  A
C1279      N1286   1.429       .  S
C1280      C1281   1.405       .  A
C1280      H1285   1.084       .  S
C1281      C1282   1.416       .  A
C1282      N1283   1.428       .  S
N1283      O1287   1.262       .  A
N1283      O1288   1.262       .  A
N1286      O1290   1.262       .  A
N1286      O1289   1.262       .  A
C1291      C1292   1.406       .  A
C1291      C1296   1.400       .  A
C1291      H1298   1.085       .  S
C1292      C1293   1.411       .  A
C1293      C1294   1.398       .  A
C1293      N1300   1.429       .  S
C1294      C1295   1.405       .  A
C1294      H1299   1.085       .  S
C1295      C1296   1.412       .  A
C1296      N1297   1.429       .  S
N1297      O1301   1.262       .  A
N1297      O1302   1.262       .  A
N1300      O1304   1.262       .  A
N1300      O1303   1.262       .  A
C1305      C1306   1.406       .  A
C1305      C1310   1.405       .  A
C1305      H1312   1.085       .  S
C1306      C1307   1.413       .  A
C1307      C1308   1.400       .  A
C1307      N1314   1.429       .  S
C1308      C1309   1.406   1_565  A
C1308      H1313   1.084       .  S
C1309      C1310   1.415   1_545  A
C1310      N1311   1.429   1_565  S
N1311      O1315   1.262   1_545  A
N1311      O1316   1.262       .  A
N1314      O1318   1.262       .  A
N1314      O1317   1.262       .  A
C1319      C1320   1.408       .  A
C1319      C1324   1.409       .  A
C1319      H1326   1.085       .  S
C1320      C1321   1.417       .  A
C1321      C1322   1.400       .  A
C1321      N1328   1.428       .  S
C1322      C1323   1.402       .  A
C1322      H1327   1.085       .  S
C1323      C1324   1.415       .  A
C1324      N1325   1.429       .  S
N1325      O1329   1.262       .  A
N1325      O1330   1.262       .  A
N1328      O1332   1.262       .  A
N1328      O1331   1.262       .  A
C1333      C1334   1.403       .  A
C1333      C1338   1.402       .  A
C1333      H1340   1.085       .  S
C1334      C1335   1.415       .  A
C1335      C1336   1.403       .  A
C1335      N1342   1.430       .  S
C1336      C1337   1.406       .  A
C1336      H1341   1.085       .  S
C1337      C1338   1.415       .  A
C1338      N1339   1.428       .  S
N1339      O1343   1.262       .  A
N1339      O1344   1.262       .  A
N1342      O1346   1.262       .  A
N1342      O1345   1.262       .  A
C1347      C1348   1.405       .  A
C1347      C1352   1.400       .  A
C1347      H1354   1.085       .  S
C1348      C1349   1.413       .  A
C1349      C1350   1.401       .  A
C1349      N1356   1.429       .  S
C1350      C1351   1.406       .  A
C1350      H1355   1.085       .  S
C1351      C1352   1.414       .  A
C1352      N1353   1.429       .  S
N1353      O1357   1.262       .  A
N1353      O1358   1.262       .  A
N1356      O1360   1.262   1_655  A
N1356      O1359   1.262       .  A
C1361      C1362   1.404       .  A
C1361      C1366   1.398       .  A
C1361      H1368   1.086       .  S
C1362      C1363   1.415       .  A
C1363      C1364   1.406       .  A
C1363      N1370   1.428       .  S
C1364      C1365   1.404       .  A
C1364      H1369   1.086       .  S
C1365      C1366   1.413       .  A
C1366      N1367   1.428       .  S
N1367      O1371   1.262       .  A
N1367      O1372   1.261       .  A
N1370      O1374   1.262       .  A
N1370      O1373   1.262       .  A
C1375      C1376   1.406   1_554  A
C1375      C1380   1.405   1_554  A
C1375      H1382   1.086       .  S
C1376      C1377   1.413       .  A
C1377      C1378   1.400       .  A
C1377      N1384   1.429       .  S
C1378      C1379   1.407       .  A
C1378      H1383   1.086       .  S
C1379      C1380   1.414       .  A
C1380      N1381   1.428       .  S
N1381      O1385   1.262       .  A
N1381      O1386   1.262   1_556  A
N1384      O1388   1.262       .  A
N1384      O1387   1.262       .  A
C1389      C1390   1.408       .  A
C1389      C1394   1.405       .  A
C1389      H1396   1.084       .  S
C1390      C1391   1.414       .  A
C1391      C1392   1.403       .  A
C1391      N1398   1.429       .  S
C1392      C1393   1.407       .  A
C1392      H1397   1.085       .  S
C1393      C1394   1.413       .  A
C1394      N1395   1.428       .  S
N1395      O1399   1.262       .  A
N1395      O1400   1.262       .  A
N1398      O1402   1.262       .  A
N1398      O1401   1.262       .  A
C1403      C1404   1.405       .  A
C1403      C1408   1.402       .  A
C1403      H1410   1.085       .  S
C1404      C1405   1.416       .  A
C1405      C1406   1.401       .  A
C1405      N1412   1.428       .  S
C1406      C1407   1.403       .  A
C1406      H1411   1.086       .  S
C1407      C1408   1.415       .  A
C1408      N1409   1.429       .  S
N1409      O1413   1.262       .  A
N1409      O1414   1.262       .  A
N1412      O1416   1.262       .  A
N1412      O1415   1.262       .  A
C1417      C1418   1.405       .  A
C1417      C1422   1.399       .  A
C1417      H1424   1.085       .  S
C1418      C1419   1.412       .  A
C1419      C1420   1.406       .  A
C1419      N1426   1.428       .  S
C1420      C1421   1.409       .  A
C1420      H1425   1.085       .  S
C1421      C1422   1.414       .  A
C1422      N1423   1.429       .  S
N1423      O1427   1.262       .  A
N1423      O1428   1.262       .  A
N1426      O1430   1.262       .  A
N1426      O1429   1.262       .  A
C1431      C1432   1.404       .  A
C1431      C1436   1.401       .  A
C1431      H1438   1.086       .  S
C1432      C1433   1.416       .  A
C1433      C1434   1.401       .  A
C1433      N1440   1.428       .  S
C1434      C1435   1.402       .  A
C1434      H1439   1.086       .  S
C1435      C1436   1.416       .  A
C1436      N1437   1.429       .  S
N1437      O1441   1.262       .  A
N1437      O1442   1.262       .  A
N1440      O1444   1.262       .  A
N1440      O1443   1.262       .  A
C1445      C1446   1.406       .  A
C1445      C1450   1.401       .  A
C1445      H1452   1.084       .  S
C1446      C1447   1.417       .  A
C1447      C1448   1.404       .  A
C1447      N1454   1.428       .  S
C1448      C1449   1.403       .  A
C1448      H1453   1.084       .  S
C1449      C1450   1.414       .  A
C1450      N1451   1.430       .  S
N1451      O1455   1.262       .  A
N1451      O1456   1.262       .  A
N1454      O1458   1.262       .  A
N1454      O1457   1.262       .  A
C1459      C1460   1.406       .  A
C1459      C1464   1.404       .  A
C1459      H1466   1.084       .  S
C1460      C1461   1.415       .  A
C1461      C1462   1.402       .  A
C1461      N1468   1.429       .  S
C1462      C1463   1.403       .  A
C1462      H1467   1.084       .  S
C1463      C1464   1.413       .  A
C1464      N1465   1.429       .  S
N1465      O1469   1.262       .  A
N1465      O1470   1.262       .  A
N1468      O1472   1.262       .  A
N1468      O1471   1.262       .  A
C1473      C1474   1.407       .  A
C1473      C1478   1.401       .  A
C1473      H1480   1.084       .  S
C1474      C1475   1.413       .  A
C1475      C1476   1.400       .  A
C1475      N1482   1.428       .  S
C1476      C1477   1.405       .  A
C1476      H1481   1.085       .  S
C1477      C1478   1.412       .  A
C1478      N1479   1.429       .  S
N1479      O1483   1.262       .  A
N1479      O1484   1.262       .  A
N1482      O1486   1.262       .  A
N1482      O1485   1.262       .  A
C1487      C1488   1.407       .  A
C1487      C1492   1.402       .  A
C1487      H1494   1.084       .  S
C1488      C1489   1.413       .  A
C1489      C1490   1.403       .  A
C1489      N1496   1.428       .  S
C1490      C1491   1.408       .  A
C1490      H1495   1.084       .  S
C1491      C1492   1.412       .  A
C1492      N1493   1.428       .  S
N1493      O1497   1.262       .  A
N1493      O1498   1.262       .  A
N1496      O1500   1.262       .  A
N1496      O1499   1.261       .  A
C1501      C1502   1.409       .  A
C1501      C1506   1.403       .  A
C1501      H1508   1.085       .  S
C1502      C1503   1.413       .  A
C1503      C1504   1.397       .  A
C1503      N1510   1.429       .  S
C1504      C1505   1.404       .  A
C1504      H1509   1.085       .  S
C1505      C1506   1.411       .  A
C1506      N1507   1.429       .  S
N1507      O1511   1.262       .  A
N1507      O1512   1.262       .  A
N1510      O1514   1.262       .  A
N1510      O1513   1.262       .  A
C1515      C1516   1.404       .  A
C1515      C1520   1.401       .  A
C1515      H1522   1.086       .  S
C1516      C1517   1.414       .  A
C1517      C1518   1.402       .  A
C1517      N1524   1.429       .  S
C1518      C1519   1.404       .  A
C1518      H1523   1.086       .  S
C1519      C1520   1.414       .  A
C1520      N1521   1.429       .  S
N1521      O1525   1.262       .  A
N1521      O1526   1.262       .  A
N1524      O1528   1.262       .  A
N1524      O1527   1.262       .  A
C1529      C1530   1.408       .  A
C1529      C1534   1.401       .  A
C1529      H1536   1.086       .  S
C1530      C1531   1.414       .  A
C1531      C1532   1.397       .  A
C1531      N1538   1.429       .  S
C1532      C1533   1.403       .  A
C1532      H1537   1.086       .  S
C1533      C1534   1.409       .  A
C1534      N1535   1.428       .  S
N1535      O1539   1.262       .  A
N1535      O1540   1.262       .  A
N1538      O1542   1.262       .  A
N1538      O1541   1.262       .  A
C1543      C1544   1.403       .  A
C1543      C1548   1.400       .  A
C1543      H1550   1.084       .  S
C1544      C1545   1.415       .  A
C1545      C1546   1.405       .  A
C1545      N1552   1.428       .  S
C1546      C1547   1.404       .  A
C1546      H1551   1.084       .  S
C1547      C1548   1.415       .  A
C1548      N1549   1.429       .  S
N1549      O1553   1.262   1_655  A
N1549      O1554   1.262       .  A
N1552      O1556   1.262       .  A
N1552      O1555   1.262       .  A
C1557      C1558   1.402       .  A
C1557      C1562   1.402       .  A
C1557      H1564   1.084       .  S
C1558      C1559   1.413       .  A
C1559      C1560   1.406       .  A
C1559      N1566   1.429       .  S
C1560      C1561   1.407       .  A
C1560      H1565   1.084       .  S
C1561      C1562   1.417       .  A
C1562      N1563   1.429       .  S
N1563      O1567   1.262       .  A
N1563      O1568   1.262       .  A
N1566      O1570   1.262       .  A
N1566      O1569   1.262       .  A
C1571      C1572   1.407       .  A
C1571      C1576   1.402       .  A
C1571      H1578   1.085       .  S
C1572      C1573   1.413       .  A
C1573      C1574   1.402       .  A
C1573      N1580   1.429       .  S
C1574      C1575   1.406       .  A
C1574      H1579   1.085       .  S
C1575      C1576   1.412       .  A
C1576      N1577   1.428       .  S
N1577      O1581   1.262       .  A
N1577      O1582   1.262       .  A
N1580      O1584   1.262       .  A
N1580      O1583   1.262       .  A
C1585      C1586   1.407       .  A
C1585      C1590   1.401       .  A
C1585      H1592   1.084       .  S
C1586      C1587   1.412       .  A
C1587      C1588   1.404       .  A
C1587      N1594   1.428       .  S
C1588      C1589   1.408       .  A
C1588      H1593   1.084       .  S
C1589      C1590   1.414       .  A
C1590      N1591   1.429       .  S
N1591      O1595   1.262       .  A
N1591      O1596   1.262       .  A
N1594      O1598   1.262       .  A
N1594      O1597   1.262       .  A
C1599      C1600   1.403       .  A
C1599      C1604   1.405       .  A
C1599      H1606   1.083       .  S
C1600      C1601   1.414       .  A
C1601      C1602   1.400       .  A
C1601      N1608   1.430   1_655  S
C1602      C1603   1.404       .  A
C1602      H1607   1.083       .  S
C1603      C1604   1.416       .  A
C1604      N1605   1.429       .  S
N1605      O1609   1.262       .  A
N1605      O1610   1.262       .  A
N1608      O1612   1.262       .  A
N1608      O1611   1.262   1_455  A
C1613      C1614   1.406   1_565  A
C1613      C1618   1.407       .  A
C1613      H1620   1.085       .  S
C1614      C1615   1.417       .  A
C1615      C1616   1.402   1_545  A
C1615      N1622   1.429       .  S
C1616      C1617   1.404       .  A
C1616      H1621   1.085       .  S
C1617      C1618   1.416       .  A
C1618      N1619   1.429       .  S
N1619      O1623   1.262       .  A
N1619      O1624   1.262       .  A
N1622      O1626   1.262       .  A
N1622      O1625   1.262       .  A
C1627      C1628   1.406       .  A
C1627      C1632   1.401       .  A
C1627      H1634   1.086       .  S
C1628      C1629   1.412       .  A
C1629      C1630   1.402       .  A
C1629      N1636   1.428       .  S
C1630      C1631   1.407       .  A
C1630      H1635   1.086       .  S
C1631      C1632   1.413       .  A
C1632      N1633   1.429       .  S
N1633      O1637   1.262       .  A
N1633      O1638   1.262       .  A
N1636      O1640   1.262       .  A
N1636      O1639   1.262       .  A
C1641      C1642   1.406       .  A
C1641      C1646   1.400       .  A
C1641      H1648   1.086       .  S
C1642      C1643   1.415       .  A
C1643      C1644   1.406       .  A
C1643      N1650   1.428       .  S
C1644      C1645   1.407       .  A
C1644      H1649   1.086   1_556  S
C1645      C1646   1.415       .  A
C1646      N1647   1.429       .  S
N1647      O1651   1.262       .  A
N1647      O1652   1.262       .  A
N1650      O1654   1.262       .  A
N1650      O1653   1.262       .  A
C1655      C1656   1.406       .  A
C1655      C1660   1.400       .  A
C1655      H1662   1.084       .  S
C1656      C1657   1.413       .  A
C1657      C1658   1.401       .  A
C1657      N1664   1.429       .  S
C1658      C1659   1.406       .  A
C1658      H1663   1.084       .  S
C1659      C1660   1.411       .  A
C1660      N1661   1.429       .  S
N1661      O1665   1.262       .  A
N1661      O1666   1.262       .  A
N1664      O1668   1.262       .  A
N1664      O1667   1.262       .  A
C1669      C1670   1.409       .  A
C1669      C1674   1.406       .  A
C1669      H1676   1.085       .  S
C1670      C1671   1.414       .  A
C1671      C1672   1.403       .  A
C1671      N1678   1.428       .  S
C1672      C1673   1.407       .  A
C1672      H1677   1.086       .  S
C1673      C1674   1.415       .  A
C1674      N1675   1.428       .  S
N1675      O1679   1.262   1_655  A
N1675      O1680   1.262       .  A
N1678      O1682   1.262       .  A
N1678      O1681   1.262       .  A
C1683      C1684   1.407       .  A
C1683      C1688   1.402       .  A
C1683      H1690   1.085       .  S
C1684      C1685   1.415       .  A
C1685      C1686   1.402       .  A
C1685      N1692   1.429       .  S
C1686      C1687   1.405       .  A
C1686      H1691   1.086       .  S
C1687      C1688   1.411       .  A
C1688      N1689   1.428       .  S
N1689      O1693   1.262       .  A
N1689      O1694   1.262       .  A
N1692      O1696   1.262       .  A
N1692      O1695   1.262       .  A
C1697      C1698   1.403       .  A
C1697      C1702   1.397       .  A
C1697      H1704   1.085       .  S
C1698      C1699   1.407       .  A
C1699      C1700   1.400       .  A
C1699      N1706   1.429       .  S
C1700      C1701   1.410       .  A
C1700      H1705   1.084       .  S
C1701      C1702   1.412       .  A
C1702      N1703   1.429       .  S
N1703      O1707   1.262       .  A
N1703      O1708   1.262       .  A
N1706      O1710   1.261       .  A
N1706      O1709   1.262       .  A
C1711      C1712   1.405       .  A
C1711      C1716   1.403       .  A
C1711      H1718   1.084       .  S
C1712      C1713   1.416       .  A
C1713      C1714   1.405       .  A
C1713      N1720   1.429       .  S
C1714      C1715   1.405       .  A
C1714      H1719   1.085       .  S
C1715      C1716   1.416       .  A
C1716      N1717   1.429       .  S
N1717      O1721   1.262       .  A
N1717      O1722   1.262       .  A
N1720      O1724   1.262       .  A
N1720      O1723   1.262       .  A
C1725      C1726   1.404       .  A
C1725      C1730   1.398       .  A
C1725      H1732   1.085       .  S
C1726      C1727   1.410       .  A
C1727      C1728   1.402       .  A
C1727      N1734   1.429       .  S
C1728      C1729   1.408       .  A
C1728      H1733   1.084       .  S
C1729      C1730   1.413       .  A
C1730      N1731   1.429       .  S
N1731      O1735   1.262       .  A
N1731      O1736   1.262       .  A
N1734      O1738   1.262       .  A
N1734      O1737   1.262       .  A
C1739      C1740   1.408       .  A
C1739      C1744   1.403       .  A
C1739      H1746   1.084   1_565  S
C1740      C1741   1.413       .  A
C1741      C1742   1.399       .  A
C1741      N1748   1.429       .  S
C1742      C1743   1.407       .  A
C1742      H1747   1.084       .  S
C1743      C1744   1.410       .  A
C1744      N1745   1.428       .  S
N1745      O1749   1.262       .  A
N1745      O1750   1.262       .  A
N1748      O1752   1.262       .  A
N1748      O1751   1.262       .  A
C1753      C1754   1.405       .  A
C1753      C1758   1.403       .  A
C1753      H1760   1.085       .  S
C1754      C1755   1.413       .  A
C1755      C1756   1.403   1_556  A
C1755      N1762   1.429       .  S
C1756      C1757   1.406       .  A
C1756      H1761   1.085       .  S
C1757      C1758   1.415   1_554  A
C1758      N1759   1.428   1_556  S
N1759      O1763   1.262   1_554  A
N1759      O1764   1.262       .  A
N1762      O1766   1.262   1_556  A
N1762      O1765   1.262       .  A
C1767      C1768   1.409       .  A
C1767      C1772   1.402       .  A
C1767      H1774   1.084       .  S
C1768      C1769   1.414       .  A
C1769      C1770   1.400       .  A
C1769      N1776   1.429       .  S
C1770      C1771   1.404       .  A
C1770      H1775   1.085       .  S
C1771      C1772   1.408       .  A
C1772      N1773   1.430       .  S
N1773      O1777   1.262       .  A
N1773      O1778   1.262       .  A
N1776      O1780   1.262       .  A
N1776      O1779   1.262       .  A
C1781      C1782   1.408       .  A
C1781      C1786   1.404       .  A
C1781      H1788   1.085       .  S
C1782      C1783   1.415       .  A
C1783      C1784   1.405       .  A
C1783      N1790   1.428       .  S
C1784      C1785   1.405       .  A
C1784      H1789   1.085       .  S
C1785      C1786   1.414       .  A
C1786      N1787   1.429       .  S
N1787      O1791   1.262       .  A
N1787      O1792   1.262       .  A
N1790      O1794   1.262       .  A
N1790      O1793   1.262       .  A
C1795      C1796   1.402       .  A
C1795      C1800   1.400       .  A
C1795      H1802   1.085       .  S
C1796      C1797   1.414       .  A
C1797      C1798   1.403       .  A
C1797      N1804   1.429       .  S
C1798      C1799   1.404       .  A
C1798      H1803   1.085       .  S
C1799      C1800   1.415       .  A
C1800      N1801   1.429       .  S
N1801      O1805   1.262       .  A
N1801      O1806   1.262       .  A
N1804      O1808   1.262       .  A
N1804      O1807   1.262       .  A
C1809      C1810   1.404       .  A
C1809      C1814   1.402       .  A
C1809      H1816   1.085       .  S
C1810      C1811   1.413       .  A
C1811      C1812   1.400       .  A
C1811      N1818   1.428       .  S
C1812      C1813   1.404       .  A
C1812      H1817   1.085       .  S
C1813      C1814   1.416       .  A
C1814      N1815   1.429       .  S
N1815      O1819   1.262       .  A
N1815      O1820   1.262       .  A
N1818      O1822   1.262       .  A
N1818      O1821   1.262       .  A
C1823      C1824   1.410       .  A
C1823      C1828   1.407       .  A
C1823      H1830   1.084       .  S
C1824      C1825   1.413       .  A
C1825      C1826   1.398       .  A
C1825      N1832   1.429       .  S
C1826      C1827   1.404       .  A
C1826      H1831   1.085   1_565  S
C1827      C1828   1.411       .  A
C1828      N1829   1.428       .  S
N1829      O1833   1.262       .  A
N1829      O1834   1.262       .  A
N1832      O1836   1.262       .  A
N1832      O1835   1.262       .  A
C1837      C1838   1.406       .  A
C1837      C1842   1.401       .  A
C1837      H1844   1.086       .  S
C1838      C1839   1.411       .  A
C1839      C1840   1.398       .  A
C1839      N1846   1.428       .  S
C1840      C1841   1.405       .  A
C1840      H1845   1.086       .  S
C1841      C1842   1.412       .  A
C1842      N1843   1.429       .  S
N1843      O1847   1.262       .  A
N1843      O1848   1.262       .  A
N1846      O1850   1.262       .  A
N1846      O1849   1.262       .  A
C1851      C1852   1.401       .  A
C1851      C1856   1.397       .  A
C1851      H1858   1.085       .  S
C1852      C1853   1.413       .  A
C1853      C1854   1.403       .  A
C1853      N1860   1.429       .  S
C1854      C1855   1.404       .  A
C1854      H1859   1.085       .  S
C1855      C1856   1.415       .  A
C1856      N1857   1.429       .  S
N1857      O1861   1.262       .  A
N1857      O1862   1.262       .  A
N1860      O1864   1.262       .  A
N1860      O1863   1.262       .  A
C1865      C1866   1.405       .  A
C1865      C1870   1.406       .  A
C1865      H1872   1.086       .  S
C1866      C1867   1.415       .  A
C1867      C1868   1.396       .  A
C1867      N1874   1.429       .  S
C1868      C1869   1.403       .  A
C1868      H1873   1.086       .  S
C1869      C1870   1.418       .  A
C1870      N1871   1.430       .  S
N1871      O1875   1.262       .  A
N1871      O1876   1.262       .  A
N1874      O1878   1.262       .  A
N1874      O1877   1.262       .  A
C1879      C1880   1.404       .  A
C1879      C1884   1.403       .  A
C1879      H1886   1.085       .  S
C1880      C1881   1.413       .  A
C1881      C1882   1.403       .  A
C1881      N1888   1.429       .  S
C1882      C1883   1.407       .  A
C1882      H1887   1.085       .  S
C1883      C1884   1.415       .  A
C1884      N1885   1.428       .  S
N1885      O1889   1.262       .  A
N1885      O1890   1.262       .  A
N1888      O1892   1.262       .  A
N1888      O1891   1.262       .  A
C1893      C1894   1.407       .  A
C1893      C1898   1.404       .  A
C1893      H1900   1.084       .  S
C1894      C1895   1.413       .  A
C1895      C1896   1.401       .  A
C1895      N1902   1.428       .  S
C1896      C1897   1.406       .  A
C1896      H1901   1.085       .  S
C1897      C1898   1.414       .  A
C1898      N1899   1.429       .  S
N1899      O1903   1.262       .  A
N1899      O1904   1.262       .  A
N1902      O1906   1.262       .  A
N1902      O1905   1.262       .  A
C1907      C1908   1.403       .  A
C1907      C1912   1.403       .  A
C1907      H1914   1.085       .  S
C1908      C1909   1.415       .  A
C1909      C1910   1.405       .  A
C1909      N1916   1.429       .  S
C1910      C1911   1.406       .  A
C1910      H1915   1.085       .  S
C1911      C1912   1.416       .  A
C1912      N1913   1.428       .  S
N1913      O1917   1.262       .  A
N1913      O1918   1.262       .  A
N1916      O1920   1.262       .  A
N1916      O1919   1.262       .  A
C1921      C1922   1.405       .  A
C1921      C1926   1.403       .  A
C1921      H1928   1.086       .  S
C1922      C1923   1.416       .  A
C1923      C1924   1.401       .  A
C1923      N1930   1.429       .  S
C1924      C1925   1.403       .  A
C1924      H1929   1.086       .  S
C1925      C1926   1.415       .  A
C1926      N1927   1.429       .  S
N1927      O1931   1.262       .  A
N1927      O1932   1.262   1_655  A
N1930      O1934   1.262       .  A
N1930      O1933   1.262       .  A
C1935      C1936   1.401       .  A
C1935      C1940   1.400       .  A
C1935      H1942   1.084       .  S
C1936      C1937   1.412       .  A
C1937      C1938   1.401       .  A
C1937      N1944   1.429       .  S
C1938      C1939   1.402       .  A
C1938      H1943   1.084       .  S
C1939      C1940   1.414       .  A
C1940      N1941   1.429       .  S
N1941      O1945   1.262       .  A
N1941      O1946   1.262       .  A
N1944      O1948   1.261       .  A
N1944      O1947   1.262       .  A
C1949      C1950   1.405       .  A
C1949      C1954   1.402       .  A
C1949      H1956   1.085       .  S
C1950      C1951   1.411       .  A
C1951      C1952   1.400       .  A
C1951      N1958   1.429       .  S
C1952      C1953   1.407       .  A
C1952      H1957   1.084   1_565  S
C1953      C1954   1.414       .  A
C1954      N1955   1.428       .  S
N1955      O1959   1.262   1_565  A
N1955      O1960   1.262       .  A
N1958      O1962   1.262       .  A
N1958      O1961   1.262       .  A
C1963      C1964   1.406       .  A
C1963      C1968   1.398       .  A
C1963      H1970   1.085       .  S
C1964      C1965   1.412       .  A
C1965      C1966   1.401       .  A
C1965      N1972   1.429       .  S
C1966      C1967   1.406       .  A
C1966      H1971   1.085       .  S
C1967      C1968   1.410       .  A
C1968      N1969   1.428       .  S
N1969      O1973   1.262       .  A
N1969      O1974   1.262       .  A
N1972      O1976   1.262       .  A
N1972      O1975   1.262       .  A
C1977      C1978   1.407       .  A
C1977      C1982   1.402   1_556  A
C1977      H1984   1.083       .  S
C1978      C1979   1.411   1_556  A
C1979      C1980   1.397       .  A
C1979      N1986   1.429       .  S
C1980      C1981   1.403       .  A
C1980      H1985   1.083       .  S
C1981      C1982   1.411       .  A
C1982      N1983   1.429       .  S
N1983      O1987   1.262       .  A
N1983      O1988   1.262   1_554  A
N1986      O1990   1.262       .  A
N1986      O1989   1.262       .  A
C1991      C1992   1.406       .  A
C1991      C1996   1.400       .  A
C1991      H1998   1.085       .  S
C1992      C1993   1.413       .  A
C1993      C1994   1.397       .  A
C1993      N2000   1.429       .  S
C1994      C1995   1.403       .  A
C1994      H1999   1.086       .  S
C1995      C1996   1.411       .  A
C1996      N1997   1.429       .  S
N1997      O2001   1.262       .  A
N1997      O2002   1.262       .  A
N2000      O2004   1.262       .  A
N2000      O2003   1.262       .  A
C2005      C2006   1.407       .  A
C2005      C2010   1.404       .  A
C2005      H2012   1.084       .  S
C2006      C2007   1.412       .  A
C2007      C2008   1.398   1_554  A
C2007      N2014   1.430       .  S
C2008      C2009   1.406       .  A
C2008      H2013   1.084       .  S
C2009      C2010   1.412   1_556  A
C2010      N2011   1.428       .  S
N2011      O2015   1.262   1_554  A
N2011      O2016   1.262       .  A
N2014      O2018   1.262       .  A
N2014      O2017   1.262       .  A
C2019      C2020   1.405       .  A
C2019      C2024   1.399       .  A
C2019      H2026   1.085       .  S
C2020      C2021   1.411       .  A
C2021      C2022   1.401       .  A
C2021      N2028   1.429       .  S
C2022      C2023   1.407       .  A
C2022      H2027   1.085       .  S
C2023      C2024   1.412       .  A
C2024      N2025   1.428       .  S
N2025      O2029   1.262       .  A
N2025      O2030   1.262       .  A
N2028      O2032   1.262       .  A
N2028      O2031   1.262       .  A
C2033      C2034   1.405       .  A
C2033      C2038   1.402       .  A
C2033      H2040   1.084       .  S
C2034      C2035   1.418       .  A
C2035      C2036   1.403       .  A
C2035      N2042   1.429       .  S
C2036      C2037   1.401       .  A
C2036      H2041   1.085       .  S
C2037      C2038   1.412       .  A
C2038      N2039   1.429       .  S
N2039      O2043   1.262       .  A
N2039      O2044   1.262       .  A
N2042      O2046   1.262       .  A
N2042      O2045   1.262       .  A
C2047      C2048   1.403       .  A
C2047      C2052   1.400       .  A
C2047      H2054   1.085       .  S
C2048      C2049   1.416       .  A
C2049      C2050   1.406       .  A
C2049      N2056   1.429       .  S
C2050      C2051   1.405       .  A
C2050      H2055   1.085       .  S
C2051      C2052   1.413       .  A
C2052      N2053   1.428       .  S
N2053      O2057   1.262       .  A
N2053      O2058   1.262       .  A
N2056      O2060   1.262       .  A
N2056      O2059   1.262       .  A
C2061      C2062   1.406       .  A
C2061      C2066   1.401       .  A
C2061      H2068   1.084       .  S
C2062      C2063   1.410       .  A
C2063      C2064   1.397       .  A
C2063      N2070   1.429       .  S
C2064      C2065   1.407       .  A
C2064      H2069   1.084       .  S
C2065      C2066   1.413       .  A
C2066      N2067   1.429       .  S
N2067      O2071   1.262       .  A
N2067      O2072   1.262       .  A
N2070      O2074   1.262       .  A
N2070      O2073   1.262       .  A
C2075      C2076   1.404       .  A
C2075      C2080   1.400       .  A
C2075      H2082   1.084       .  S
C2076      C2077   1.415       .  A
C2077      C2078   1.401       .  A
C2077      N2084   1.429       .  S
C2078      C2079   1.404       .  A
C2078      H2083   1.084       .  S
C2079      C2080   1.414       .  A
C2080      N2081   1.429       .  S
N2081      O2085   1.262       .  A
N2081      O2086   1.262       .  A
N2084      O2088   1.262       .  A
N2084      O2087   1.262       .  A
C2089      C2090   1.404       .  A
C2089      C2094   1.398       .  A
C2089      H2096   1.084       .  S
C2090      C2091   1.416       .  A
C2091      C2092   1.407       .  A
C2091      N2098   1.429       .  S
C2092      C2093   1.405       .  A
C2092      H2097   1.084       .  S
C2093      C2094   1.415       .  A
C2094      N2095   1.430       .  S
N2095      O2099   1.262       .  A
N2095      O2100   1.262       .  A
N2098      O2102   1.261       .  A
N2098      O2101   1.262       .  A
C2103      C2104   1.404       .  A
C2103      C2108   1.404   1_556  A
C2103      H2110   1.087       .  S
C2104      C2105   1.416       .  A
C2105      C2106   1.402   1_556  A
C2105      N2112   1.429       .  S
C2106      C2107   1.404       .  A
C2106      H2111   1.087       .  S
C2107      C2108   1.416       .  A
C2108      N2109   1.429       .  S
N2109      O2113   1.262       .  A
N2109      O2114   1.262       .  A
N2112      O2116   1.262       .  A
N2112      O2115   1.262       .  A
C2117      C2118   1.406       .  A
C2117      C2122   1.404       .  A
C2117      H2124   1.085       .  S
C2118      C2119   1.414       .  A
C2119      C2120   1.401       .  A
C2119      N2126   1.429       .  S
C2120      C2121   1.406       .  A
C2120      H2125   1.085       .  S
C2121      C2122   1.415       .  A
C2122      N2123   1.429       .  S
N2123      O2127   1.262       .  A
N2123      O2128   1.262       .  A
N2126      O2130   1.262       .  A
N2126      O2129   1.262       .  A
C2131      C2132   1.402       .  A
C2131      C2136   1.401       .  A
C2131      H2138   1.085       .  S
C2132      C2133   1.416       .  A
C2133      C2134   1.401       .  A
C2133      N2140   1.429       .  S
C2134      C2135   1.404       .  A
C2134      H2139   1.084       .  S
C2135      C2136   1.417       .  A
C2136      N2137   1.429       .  S
N2137      O2141   1.262       .  A
N2137      O2142   1.262       .  A
N2140      O2144   1.261       .  A
N2140      O2143   1.262       .  A
C2145      C2146   1.403       .  A
C2145      C2150   1.403       .  A
C2145      H2152   1.085       .  S
C2146      C2147   1.414       .  A
C2147      C2148   1.398       .  A
C2147      N2154   1.429       .  S
C2148      C2149   1.403       .  A
C2148      H2153   1.085       .  S
C2149      C2150   1.415       .  A
C2150      N2151   1.429       .  S
N2151      O2155   1.262       .  A
N2151      O2156   1.262       .  A
N2154      O2158   1.262       .  A
N2154      O2157   1.262       .  A
C2159      C2160   1.404       .  A
C2159      C2164   1.403       .  A
C2159      H2166   1.085       .  S
C2160      C2161   1.414       .  A
C2161      C2162   1.404       .  A
C2161      N2168   1.428       .  S
C2162      C2163   1.405       .  A
C2162      H2167   1.085       .  S
C2163      C2164   1.417       .  A
C2164      N2165   1.429       .  S
N2165      O2169   1.262       .  A
N2165      O2170   1.262       .  A
N2168      O2172   1.262       .  A
N2168      O2171   1.262       .  A
C2173      C2174   1.404       .  A
C2173      C2178   1.402       .  A
C2173      H2180   1.085       .  S
C2174      C2175   1.416       .  A
C2175      C2176   1.402       .  A
C2175      N2182   1.428       .  S
C2176      C2177   1.404       .  A
C2176      H2181   1.085       .  S
C2177      C2178   1.416       .  A
C2178      N2179   1.428       .  S
N2179      O2183   1.262       .  A
N2179      O2184   1.262       .  A
N2182      O2186   1.261       .  A
N2182      O2185   1.262       .  A
C2187      C2188   1.407       .  A
C2187      C2192   1.403       .  A
C2187      H2194   1.086       .  S
C2188      C2189   1.415       .  A
C2189      C2190   1.404   1_655  A
C2189      N2196   1.429       .  S
C2190      C2191   1.407       .  A
C2190      H2195   1.086       .  S
C2191      C2192   1.413   1_455  A
C2192      N2193   1.428   1_655  S
N2193      O2197   1.262       .  A
N2193      O2198   1.262   1_455  A
N2196      O2200   1.262       .  A
N2196      O2199   1.262   1_655  A
C2201      C2202   1.407       .  A
C2201      C2206   1.402       .  A
C2201      H2208   1.083       .  S
C2202      C2203   1.412       .  A
C2203      C2204   1.402       .  A
C2203      N2210   1.429       .  S
C2204      C2205   1.408       .  A
C2204      H2209   1.083       .  S
C2205      C2206   1.413       .  A
C2206      N2207   1.429       .  S
N2207      O2211   1.262       .  A
N2207      O2212   1.262       .  A
N2210      O2214   1.262       .  A
N2210      O2213   1.262       .  A
C2215      C2216   1.407       .  A
C2215      C2220   1.404       .  A
C2215      H2222   1.085       .  S
C2216      C2217   1.415       .  A
C2217      C2218   1.406   1_565  A
C2217      N2224   1.428       .  S
C2218      C2219   1.406       .  A
C2218      H2223   1.085       .  S
C2219      C2220   1.413   1_545  A
C2220      N2221   1.428       .  S
N2221      O2225   1.262       .  A
N2221      O2226   1.262       .  A
N2224      O2228   1.262       .  A
N2224      O2227   1.262       .  A
C2229      C2230   1.405       .  A
C2229      C2234   1.404       .  A
C2229      H2236   1.085       .  S
C2230      C2231   1.416       .  A
C2231      C2232   1.405       .  A
C2231      N2238   1.428       .  S
C2232      C2233   1.405       .  A
C2232      H2237   1.085       .  S
C2233      C2234   1.416       .  A
C2234      N2235   1.429       .  S
N2235      O2239   1.262       .  A
N2235      O2240   1.262       .  A
N2238      O2242   1.262       .  A
N2238      O2241   1.262       .  A
C2243      C2244   1.407       .  A
C2243      C2248   1.401       .  A
C2243      H2250   1.085       .  S
C2244      C2245   1.412       .  A
C2245      C2246   1.399       .  A
C2245      N2252   1.429       .  S
C2246      C2247   1.406       .  A
C2246      H2251   1.085       .  S
C2247      C2248   1.411       .  A
C2248      N2249   1.428       .  S
N2249      O2253   1.262       .  A
N2249      O2254   1.262       .  A
N2252      O2256   1.261       .  A
N2252      O2255   1.261       .  A
C2257      C2258   1.408       .  A
C2257      C2262   1.402       .  A
C2257      H2264   1.084       .  S
C2258      C2259   1.414       .  A
C2259      C2260   1.398   1_455  A
C2259      N2266   1.430       .  S
C2260      C2261   1.404       .  A
C2260      H2265   1.085       .  S
C2261      C2262   1.410   1_655  A
C2262      N2263   1.429       .  S
N2263      O2267   1.262   1_455  A
N2263      O2268   1.262       .  A
N2266      O2270   1.261       .  A
N2266      O2269   1.262   1_455  A
C2271      C2272   1.408       .  A
C2271      C2276   1.403       .  A
C2271      H2278   1.085       .  S
C2272      C2273   1.415       .  A
C2273      C2274   1.401       .  A
C2273      N2280   1.429       .  S
C2274      C2275   1.405       .  A
C2274      H2279   1.086       .  S
C2275      C2276   1.410       .  A
C2276      N2277   1.428       .  S
N2277      O2281   1.262       .  A
N2277      O2282   1.262       .  A
N2280      O2284   1.262       .  A
N2280      O2283   1.262       .  A
C2285      C2286   1.406       .  A
C2285      C2290   1.405       .  A
C2285      H2292   1.084       .  S
C2286      C2287   1.416       .  A
C2287      C2288   1.402       .  A
C2287      N2294   1.429       .  S
C2288      C2289   1.404       .  A
C2288      H2293   1.084       .  S
C2289      C2290   1.416       .  A
C2290      N2291   1.429       .  S
N2291      O2295   1.262       .  A
N2291      O2296   1.262       .  A
N2294      O2298   1.262       .  A
N2294      O2297   1.262       .  A
C2299      C2300   1.403       .  A
C2299      C2304   1.398       .  A
C2299      H2306   1.086       .  S
C2300      C2301   1.418       .  A
C2301      C2302   1.405       .  A
C2301      N2308   1.429       .  S
C2302      C2303   1.403       .  A
C2302      H2307   1.086       .  S
C2303      C2304   1.413       .  A
C2304      N2305   1.429       .  S
N2305      O2309   1.262       .  A
N2305      O2310   1.262       .  A
N2308      O2312   1.262       .  A
N2308      O2311   1.262       .  A
C2313      C2314   1.403       .  A
C2313      C2318   1.404       .  A
C2313      H2320   1.086       .  S
C2314      C2315   1.414       .  A
C2315      C2316   1.399       .  A
C2315      N2322   1.429       .  S
C2316      C2317   1.404       .  A
C2316      H2321   1.086       .  S
C2317      C2318   1.416       .  A
C2318      N2319   1.429       .  S
N2319      O2323   1.262       .  A
N2319      O2324   1.262       .  A
N2322      O2326   1.262       .  A
N2322      O2325   1.262       .  A
C2327      C2328   1.404       .  A
C2327      C2332   1.398       .  A
C2327      H2334   1.086       .  S
C2328      C2329   1.409       .  A
C2329      C2330   1.400       .  A
C2329      N2336   1.428       .  S
C2330      C2331   1.407       .  A
C2330      H2335   1.085       .  S
C2331      C2332   1.411       .  A
C2332      N2333   1.429       .  S
N2333      O2337   1.262       .  A
N2333      O2338   1.262       .  A
N2336      O2340   1.262       .  A
N2336      O2339   1.262       .  A
C2341      C2342   1.403       .  A
C2341      C2346   1.396       .  A
C2341      H2348   1.085       .  S
C2342      C2343   1.415       .  A
C2343      C2344   1.400       .  A
C2343      N2350   1.428       .  S
C2344      C2345   1.401       .  A
C2344      H2349   1.085       .  S
C2345      C2346   1.415       .  A
C2346      N2347   1.431       .  S
N2347      O2351   1.262       .  A
N2347      O2352   1.262       .  A
N2350      O2354   1.262       .  A
N2350      O2353   1.262       .  A
C2355      C2356   1.406   1_655  A
C2355      C2360   1.405       .  A
C2355      H2362   1.085   1_655  S
C2356      C2357   1.413       .  A
C2357      C2358   1.402   1_455  A
C2357      N2364   1.429       .  S
C2358      C2359   1.406       .  A
C2358      H2363   1.085       .  S
C2359      C2360   1.414       .  A
C2360      N2361   1.428       .  S
N2361      O2365   1.262       .  A
N2361      O2366   1.262       .  A
N2364      O2368   1.262       .  A
N2364      O2367   1.262   1_455  A
C2369      C2370   1.404       .  A
C2369      C2374   1.400       .  A
C2369      H2376   1.085       .  S
C2370      C2371   1.410       .  A
C2371      C2372   1.401       .  A
C2371      N2378   1.429       .  S
C2372      C2373   1.407       .  A
C2372      H2377   1.084       .  S
C2373      C2374   1.415       .  A
C2374      N2375   1.429       .  S
N2375      O2379   1.262       .  A
N2375      O2380   1.262       .  A
N2378      O2382   1.262       .  A
N2378      O2381   1.262       .  A
C2383      C2384   1.404       .  A
C2383      C2388   1.401       .  A
C2383      H2390   1.083       .  S
C2384      C2385   1.416       .  A
C2385      C2386   1.393       .  A
C2385      N2392   1.431       .  S
C2386      C2387   1.401       .  A
C2386      H2391   1.083       .  S
C2387      C2388   1.415       .  A
C2388      N2389   1.429       .  S
N2389      O2393   1.262       .  A
N2389      O2394   1.262       .  A
N2392      O2396   1.262       .  A
N2392      O2395   1.262       .  A
C2397      C2398   1.405       .  A
C2397      C2402   1.404       .  A
C2397      H2404   1.085       .  S
C2398      C2399   1.415       .  A
C2399      C2400   1.407       .  A
C2399      N2406   1.428       .  S
C2400      C2401   1.406       .  A
C2400      H2405   1.085       .  S
C2401      C2402   1.417       .  A
C2402      N2403   1.429       .  S
N2403      O2407   1.262       .  A
N2403      O2408   1.262       .  A
N2406      O2410   1.262       .  A
N2406      O2409   1.262       .  A
C2411      C2412   1.406       .  A
C2411      C2416   1.404       .  A
C2411      H2418   1.084       .  S
C2412      C2413   1.415       .  A
C2413      C2414   1.402       .  A
C2413      N2420   1.428       .  S
C2414      C2415   1.403       .  A
C2414      H2419   1.085       .  S
C2415      C2416   1.416       .  A
C2416      N2417   1.430       .  S
N2417      O2421   1.261       .  A
N2417      O2422   1.262       .  A
N2420      O2424   1.262       .  A
N2420      O2423   1.262       .  A
C2425      C2426   1.408       .  A
C2425      C2430   1.402   1_655  A
C2425      H2432   1.084       .  S
C2426      C2427   1.414   1_655  A
C2427      C2428   1.401       .  A
C2427      N2434   1.429       .  S
C2428      C2429   1.404       .  A
C2428      H2433   1.085       .  S
C2429      C2430   1.411       .  A
C2430      N2431   1.429       .  S
N2431      O2435   1.261       .  A
N2431      O2436   1.261   1_455  A
N2434      O2438   1.262       .  A
N2434      O2437   1.262       .  A
C2439      C2440   1.406       .  A
C2439      C2444   1.403   1_556  A
C2439      H2446   1.085       .  S
C2440      C2441   1.416       .  A
C2441      C2442   1.406   1_556  A
C2441      N2448   1.428       .  S
C2442      C2443   1.405       .  A
C2442      H2447   1.086       .  S
C2443      C2444   1.414       .  A
C2444      N2445   1.429       .  S
N2445      O2449   1.262       .  A
N2445      O2450   1.262       .  A
N2448      O2452   1.262       .  A
N2448      O2451   1.262       .  A
C2453      C2454   1.403       .  A
C2453      C2458   1.398       .  A
C2453      H2460   1.084       .  S
C2454      C2455   1.417       .  A
C2455      C2456   1.400       .  A
C2455      N2462   1.429       .  S
C2456      C2457   1.400       .  A
C2456      H2461   1.084       .  S
C2457      C2458   1.412       .  A
C2458      N2459   1.429       .  S
N2459      O2463   1.262       .  A
N2459      O2464   1.262       .  A
N2462      O2466   1.262       .  A
N2462      O2465   1.262       .  A
C2467      C2468   1.409       .  A
C2467      C2472   1.403       .  A
C2467      H2474   1.084       .  S
C2468      C2469   1.416       .  A
C2469      C2470   1.399       .  A
C2469      N2476   1.429       .  S
C2470      C2471   1.402       .  A
C2470      H2475   1.085       .  S
C2471      C2472   1.409       .  A
C2472      N2473   1.430       .  S
N2473      O2477   1.262       .  A
N2473      O2478   1.262       .  A
N2476      O2480   1.262       .  A
N2476      O2479   1.262       .  A
C2481      C2482   1.404       .  A
C2481      C2486   1.397       .  A
C2481      H2488   1.084       .  S
C2482      C2483   1.416       .  A
C2483      C2484   1.405       .  A
C2483      N2490   1.429       .  S
C2484      C2485   1.404       .  A
C2484      H2489   1.084       .  S
C2485      C2486   1.412       .  A
C2486      N2487   1.430       .  S
N2487      O2491   1.262       .  A
N2487      O2492   1.262       .  A
N2490      O2494   1.262       .  A
N2490      O2493   1.262       .  A
C2495      C2496   1.407       .  A
C2495      C2500   1.406       .  A
C2495      H2502   1.085       .  S
C2496      C2497   1.412       .  A
C2497      C2498   1.401       .  A
C2497      N2504   1.428       .  S
C2498      C2499   1.407       .  A
C2498      H2503   1.085       .  S
C2499      C2500   1.415       .  A
C2500      N2501   1.429       .  S
N2501      O2505   1.262       .  A
N2501      O2506   1.262       .  A
N2504      O2508   1.262       .  A
N2504      O2507   1.262       .  A
C2509      C2510   1.406       .  A
C2509      C2514   1.400   1_545  A
C2509      H2516   1.085       .  S
C2510      C2511   1.414   1_545  A
C2511      C2512   1.404       .  A
C2511      N2518   1.429       .  S
C2512      C2513   1.406       .  A
C2512      H2517   1.085       .  S
C2513      C2514   1.412       .  A
C2514      N2515   1.429       .  S
N2515      O2519   1.262       .  A
N2515      O2520   1.262   1_565  A
N2518      O2522   1.262   1_565  A
N2518      O2521   1.262       .  A
C2523      C2524   1.406       .  A
C2523      C2528   1.401       .  A
C2523      H2530   1.085       .  S
C2524      C2525   1.412       .  A
C2525      C2526   1.401       .  A
C2525      N2532   1.429       .  S
C2526      C2527   1.407       .  A
C2526      H2531   1.085       .  S
C2527      C2528   1.413       .  A
C2528      N2529   1.428       .  S
N2529      O2533   1.262       .  A
N2529      O2534   1.262       .  A
N2532      O2536   1.262       .  A
N2532      O2535   1.262       .  A
C2537      C2538   1.406       .  A
C2537      C2542   1.399       .  A
C2537      H2544   1.085       .  S
C2538      C2539   1.411       .  A
C2539      C2540   1.405       .  A
C2539      N2546   1.429       .  S
C2540      C2541   1.410       .  A
C2540      H2545   1.085       .  S
C2541      C2542   1.413       .  A
C2542      N2543   1.429       .  S
N2543      O2547   1.262       .  A
N2543      O2548   1.262       .  A
N2546      O2550   1.262       .  A
N2546      O2549   1.262       .  A
C2551      C2552   1.401       .  A
C2551      C2556   1.401       .  A
C2551      H2558   1.084       .  S
C2552      C2553   1.413       .  A
C2553      C2554   1.401       .  A
C2553      N2560   1.429       .  S
C2554      C2555   1.403       .  A
C2554      H2559   1.084       .  S
C2555      C2556   1.414       .  A
C2556      N2557   1.429       .  S
N2557      O2561   1.262       .  A
N2557      O2562   1.262       .  A
N2560      O2564   1.262       .  A
N2560      O2563   1.262       .  A
C2565      C2566   1.406       .  A
C2565      C2570   1.401       .  A
C2565      H2572   1.085       .  S
C2566      C2567   1.414       .  A
C2567      C2568   1.403       .  A
C2567      N2574   1.429       .  S
C2568      C2569   1.407       .  A
C2568      H2573   1.085       .  S
C2569      C2570   1.411       .  A
C2570      N2571   1.428       .  S
N2571      O2575   1.262       .  A
N2571      O2576   1.262       .  A
N2574      O2578   1.262       .  A
N2574      O2577   1.262       .  A
C2579      C2580   1.405       .  A
C2579      C2584   1.401       .  A
C2579      H2586   1.085       .  S
C2580      C2581   1.410       .  A
C2581      C2582   1.403       .  A
C2581      N2588   1.428       .  S
C2582      C2583   1.407       .  A
C2582      H2587   1.084       .  S
C2583      C2584   1.413       .  A
C2584      N2585   1.430       .  S
N2585      O2589   1.261       .  A
N2585      O2590   1.262       .  A
N2588      O2592   1.262       .  A
N2588      O2591   1.262       .  A
C2593      C2594   1.406       .  A
C2593      C2598   1.402       .  A
C2593      H2600   1.084       .  S
C2594      C2595   1.416       .  A
C2595      C2596   1.405       .  A
C2595      N2602   1.428       .  S
C2596      C2597   1.404       .  A
C2596      H2601   1.084       .  S
C2597      C2598   1.415       .  A
C2598      N2599   1.430   1_556  S
N2599      O2603   1.262       .  A
N2599      O2604   1.262       .  A
N2602      O2606   1.262       .  A
N2602      O2605   1.262       .  A
C2607      C2608   1.407       .  A
C2607      C2612   1.401       .  A
C2607      H2614   1.085       .  S
C2608      C2609   1.413       .  A
C2609      C2610   1.402       .  A
C2609      N2616   1.429       .  S
C2610      C2611   1.407       .  A
C2610      H2615   1.085       .  S
C2611      C2612   1.413       .  A
C2612      N2613   1.429       .  S
N2613      O2617   1.262       .  A
N2613      O2618   1.262       .  A
N2616      O2620   1.262       .  A
N2616      O2619   1.262       .  A
C2621      C2622   1.404   1_655  A
C2621      C2626   1.404       .  A
C2621      H2628   1.086   1_655  S
C2622      C2623   1.414       .  A
C2623      C2624   1.403   1_455  A
C2623      N2630   1.428       .  S
C2624      C2625   1.405       .  A
C2624      H2629   1.085       .  S
C2625      C2626   1.417       .  A
C2626      N2627   1.429       .  S
N2627      O2631   1.262       .  A
N2627      O2632   1.262       .  A
N2630      O2634   1.262   1_455  A
N2630      O2633   1.262       .  A
C2635      C2636   1.404       .  A
C2635      C2640   1.397       .  A
C2635      H2642   1.086       .  S
C2636      C2637   1.415       .  A
C2637      C2638   1.402       .  A
C2637      N2644   1.428       .  S
C2638      C2639   1.403       .  A
C2638      H2643   1.086       .  S
C2639      C2640   1.411       .  A
C2640      N2641   1.427       .  S
N2641      O2645   1.260       .  A
N2641      O2646   1.262       .  A
N2644      O2648   1.262       .  A
N2644      O2647   1.262       .  A
C2649      C2650   1.400       .  A
C2649      C2654   1.400       .  A
C2649      H2656   1.085       .  S
C2650      C2651   1.413       .  A
C2651      C2652   1.401       .  A
C2651      N2658   1.429       .  S
C2652      C2653   1.404       .  A
C2652      H2657   1.084       .  S
C2653      C2654   1.415       .  A
C2654      N2655   1.427       .  S
N2655      O2659   1.261       .  A
N2655      O2660   1.262       .  A
N2658      O2662   1.262       .  A
N2658      O2661   1.262       .  A
C2663      C2664   1.408       .  A
C2663      C2668   1.404       .  A
C2663      H2670   1.084       .  S
C2664      C2665   1.412       .  A
C2665      C2666   1.398       .  A
C2665      N2672   1.429       .  S
C2666      C2667   1.405       .  A
C2666      H2671   1.085       .  S
C2667      C2668   1.411       .  A
C2668      N2669   1.429       .  S
N2669      O2673   1.262       .  A
N2669      O2674   1.261       .  A
N2672      O2676   1.262       .  A
N2672      O2675   1.262       .  A
C2677      C2678   1.404       .  A
C2677      C2682   1.404       .  A
C2677      H2684   1.082       .  S
C2678      C2679   1.416       .  A
C2679      C2680   1.407       .  A
C2679      N2686   1.430       .  S
C2680      C2681   1.408       .  A
C2680      H2685   1.082       .  S
C2681      C2682   1.415       .  A
C2682      N2683   1.428       .  S
N2683      O2687   1.262       .  A
N2683      O2688   1.262       .  A
N2686      O2690   1.262       .  A
N2686      O2689   1.262       .  A
C2691      C2692   1.405       .  A
C2691      C2696   1.400       .  A
C2691      H2698   1.085       .  S
C2692      C2693   1.412       .  A
C2693      C2694   1.406       .  A
C2693      N2700   1.428       .  S
C2694      C2695   1.408       .  A
C2694      H2699   1.085       .  S
C2695      C2696   1.414       .  A
C2696      N2697   1.429       .  S
N2697      O2701   1.262       .  A
N2697      O2702   1.262       .  A
N2700      O2704   1.262       .  A
N2700      O2703   1.262       .  A
C2705      C2706   1.401       .  A
C2705      C2710   1.396       .  A
C2705      H2712   1.085       .  S
C2706      C2707   1.416       .  A
C2707      C2708   1.401       .  A
C2707      N2714   1.428       .  S
C2708      C2709   1.402       .  A
C2708      H2713   1.085       .  S
C2709      C2710   1.412       .  A
C2710      N2711   1.427       .  S
N2711      O2715   1.260       .  A
N2711      O2716   1.261       .  A
N2714      O2718   1.262       .  A
N2714      O2717   1.262       .  A
C2719      C2720   1.405       .  A
C2719      C2724   1.400       .  A
C2719      H2726   1.084       .  S
C2720      C2721   1.418       .  A
C2721      C2722   1.408       .  A
C2721      N2728   1.429       .  S
C2722      C2723   1.405       .  A
C2722      H2727   1.084       .  S
C2723      C2724   1.414       .  A
C2724      N2725   1.430       .  S
N2725      O2729   1.262       .  A
N2725      O2730   1.262       .  A
N2728      O2732   1.262       .  A
N2728      O2731   1.262       .  A
C2733      C2734   1.402       .  A
C2733      C2738   1.401       .  A
C2733      H2740   1.084       .  S
C2734      C2735   1.413       .  A
C2735      C2736   1.399       .  A
C2735      N2742   1.428       .  S
C2736      C2737   1.402       .  A
C2736      H2741   1.084       .  S
C2737      C2738   1.416       .  A
C2738      N2739   1.429   1_556  S
N2739      O2743   1.262       .  A
N2739      O2744   1.262       .  A
N2742      O2746   1.262       .  A
N2742      O2745   1.262       .  A
C2747      C2748   1.404       .  A
C2747      C2752   1.404       .  A
C2747      H2754   1.085       .  S
C2748      C2749   1.416       .  A
C2749      C2750   1.402       .  A
C2749      N2756   1.429       .  S
C2750      C2751   1.404       .  A
C2750      H2755   1.085       .  S
C2751      C2752   1.416       .  A
C2752      N2753   1.428       .  S
N2753      O2757   1.261       .  A
N2753      O2758   1.262       .  A
N2756      O2760   1.262       .  A
N2756      O2759   1.262       .  A
C2761      C2762   1.403       .  A
C2761      C2766   1.399       .  A
C2761      H2768   1.085       .  S
C2762      C2763   1.408       .  A
C2763      C2764   1.403       .  A
C2763      N2770   1.429       .  S
C2764      C2765   1.409       .  A
C2764      H2769   1.084       .  S
C2765      C2766   1.413       .  A
C2766      N2767   1.429       .  S
N2767      O2771   1.262       .  A
N2767      O2772   1.262       .  A
N2770      O2774   1.262       .  A
N2770      O2773   1.262       .  A
C2775      C2776   1.408       .  A
C2775      C2780   1.402       .  A
C2775      H2782   1.086       .  S
C2776      C2777   1.412       .  A
C2777      C2778   1.399       .  A
C2777      N2784   1.429       .  S
C2778      C2779   1.405       .  A
C2778      H2783   1.086       .  S
C2779      C2780   1.411       .  A
C2780      N2781   1.429       .  S
N2781      O2785   1.262       .  A
N2781      O2786   1.262       .  A
N2784      O2788   1.262       .  A
N2784      O2787   1.262       .  A
C2789      C2790   1.406       .  A
C2789      C2794   1.406       .  A
C2789      H2796   1.085       .  S
C2790      C2791   1.416       .  A
C2791      C2792   1.404       .  A
C2791      N2798   1.428       .  S
C2792      C2793   1.404       .  A
C2792      H2797   1.085       .  S
C2793      C2794   1.416       .  A
C2794      N2795   1.429       .  S
N2795      O2799   1.262       .  A
N2795      O2800   1.262       .  A
N2798      O2802   1.262       .  A
N2798      O2801   1.262       .  A
C2803      C2804   1.402       .  A
C2803      C2808   1.400       .  A
C2803      H2810   1.084       .  S
C2804      C2805   1.419       .  A
C2805      C2806   1.407       .  A
C2805      N2812   1.430       .  S
C2806      C2807   1.404       .  A
C2806      H2811   1.084       .  S
C2807      C2808   1.415       .  A
C2808      N2809   1.428       .  S
N2809      O2813   1.262       .  A
N2809      O2814   1.261       .  A
N2812      O2816   1.262       .  A
N2812      O2815   1.262       .  A
C2817      C2818   1.408       .  A
C2817      C2822   1.405       .  A
C2817      H2824   1.085       .  S
C2818      C2819   1.415       .  A
C2819      C2820   1.403       .  A
C2819      N2826   1.428       .  S
C2820      C2821   1.407       .  A
C2820      H2825   1.085       .  S
C2821      C2822   1.414       .  A
C2822      N2823   1.428       .  S
N2823      O2827   1.262       .  A
N2823      O2828   1.262       .  A
N2826      O2830   1.262       .  A
N2826      O2829   1.262       .  A
C2831      C2832   1.407       .  A
C2831      C2836   1.400       .  A
C2831      H2838   1.085       .  S
C2832      C2833   1.416       .  A
C2833      C2834   1.402       .  A
C2833      N2840   1.429       .  S
C2834      C2835   1.405       .  A
C2834      H2839   1.086       .  S
C2835      C2836   1.408       .  A
C2836      N2837   1.428       .  S
N2837      O2841   1.262       .  A
N2837      O2842   1.262       .  A
N2840      O2844   1.262       .  A
N2840      O2843   1.262       .  A
C2845      C2846   1.404       .  A
C2845      C2850   1.399       .  A
C2845      H2852   1.084       .  S
C2846      C2847   1.417       .  A
C2847      C2848   1.408       .  A
C2847      N2854   1.429       .  S
C2848      C2849   1.405       .  A
C2848      H2853   1.084       .  S
C2849      C2850   1.415       .  A
C2850      N2851   1.430   1_565  S
N2851      O2855   1.262       .  A
N2851      O2856   1.262       .  A
N2854      O2858   1.262       .  A
N2854      O2857   1.262       .  A
C2859      C2860   1.404       .  A
C2859      C2864   1.397       .  A
C2859      H2866   1.085       .  S
C2860      C2861   1.410       .  A
C2861      C2862   1.401       .  A
C2861      N2868   1.429       .  S
C2862      C2863   1.408       .  A
C2862      H2867   1.085       .  S
C2863      C2864   1.414       .  A
C2864      N2865   1.429       .  S
N2865      O2869   1.262       .  A
N2865      O2870   1.262       .  A
N2868      O2872   1.262       .  A
N2868      O2871   1.262       .  A
C2873      C2874   1.406       .  A
C2873      C2878   1.402       .  A
C2873      H2880   1.085   1_565  S
C2874      C2875   1.416       .  A
C2875      C2876   1.409       .  A
C2875      N2882   1.429       .  S
C2876      C2877   1.407       .  A
C2876      H2881   1.085       .  S
C2877      C2878   1.412       .  A
C2878      N2879   1.428       .  S
N2879      O2883   1.262       .  A
N2879      O2884   1.262       .  A
N2882      O2886   1.262       .  A
N2882      O2885   1.262       .  A
C2887      C2888   1.407       .  A
C2887      C2892   1.400       .  A
C2887      H2894   1.083       .  S
C2888      C2889   1.409       .  A
C2889      C2890   1.394       .  A
C2889      N2896   1.429       .  S
C2890      C2891   1.402       .  A
C2890      H2895   1.080       .  S
C2891      C2892   1.409       .  A
C2892      N2893   1.429       .  S
N2893      O2897   1.262       .  A
N2893      O2898   1.262       .  A
N2896      O2900   1.262       .  A
N2896      O2899   1.262       .  A
C2901      C2902   1.408       .  A
C2901      C2906   1.407       .  A
C2901      H2908   1.085       .  S
C2902      C2903   1.417       .  A
C2903      C2904   1.401       .  A
C2903      N2910   1.428       .  S
C2904      C2905   1.401       .  A
C2904      H2909   1.085       .  S
C2905      C2906   1.414       .  A
C2906      N2907   1.429   1_556  S
N2907      O2911   1.262       .  A
N2907      O2912   1.262       .  A
N2910      O2914   1.262       .  A
N2910      O2913   1.262       .  A
C2915      C2916   1.407       .  A
C2915      C2920   1.405       .  A
C2915      H2922   1.084       .  S
C2916      C2917   1.415       .  A
C2917      C2918   1.401       .  A
C2917      N2924   1.429       .  S
C2918      C2919   1.404       .  A
C2918      H2923   1.084       .  S
C2919      C2920   1.414       .  A
C2920      N2921   1.429       .  S
N2921      O2925   1.262       .  A
N2921      O2926   1.262       .  A
N2924      O2928   1.262       .  A
N2924      O2927   1.262       .  A
C2929      C2930   1.410       .  A
C2929      C2934   1.407       .  A
C2929      H2936   1.086       .  S
C2930      C2931   1.415       .  A
C2931      C2932   1.400   1_455  A
C2931      N2938   1.429       .  S
C2932      C2933   1.404       .  A
C2932      H2937   1.087       .  S
C2933      C2934   1.411   1_655  A
C2934      N2935   1.429       .  S
N2935      O2939   1.262       .  A
N2935      O2940   1.262       .  A
N2938      O2942   1.262   1_455  A
N2938      O2941   1.262       .  A
C2943      C2944   1.407       .  A
C2943      C2948   1.401       .  A
C2943      H2950   1.085       .  S
C2944      C2945   1.413       .  A
C2945      C2946   1.407       .  A
C2945      N2952   1.428       .  S
C2946      C2947   1.407       .  A
C2946      H2951   1.085       .  S
C2947      C2948   1.413       .  A
C2948      N2949   1.430       .  S
N2949      O2953   1.262       .  A
N2949      O2954   1.262       .  A
N2952      O2956   1.262       .  A
N2952      O2955   1.262       .  A
C2957      C2958   1.403       .  A
C2957      C2962   1.400       .  A
C2957      H2964   1.084       .  S
C2958      C2959   1.414       .  A
C2959      C2960   1.399       .  A
C2959      N2966   1.430       .  S
C2960      C2961   1.403       .  A
C2960      H2965   1.084       .  S
C2961      C2962   1.412       .  A
C2962      N2963   1.429       .  S
N2963      O2967   1.262       .  A
N2963      O2968   1.262       .  A
N2966      O2970   1.262       .  A
N2966      O2969   1.262       .  A
C2971      C2972   1.406       .  A
C2971      C2976   1.402       .  A
C2971      H2978   1.087       .  S
C2972      C2973   1.414       .  A
C2973      C2974   1.402       .  A
C2973      N2980   1.429       .  S
C2974      C2975   1.406       .  A
C2974      H2979   1.087       .  S
C2975      C2976   1.412       .  A
C2976      N2977   1.428       .  S
N2977      O2981   1.262       .  A
N2977      O2982   1.262       .  A
N2980      O2984   1.262       .  A
N2980      O2983   1.262       .  A
C2985      C2986   1.404       .  A
C2985      C2990   1.396       .  A
C2985      H2992   1.085       .  S
C2986      C2987   1.411       .  A
C2987      C2988   1.401       .  A
C2987      N2994   1.429       .  S
C2988      C2989   1.406       .  A
C2988      H2993   1.085   1_556  S
C2989      C2990   1.413       .  A
C2990      N2991   1.429       .  S
N2991      O2995   1.262       .  A
N2991      O2996   1.262       .  A
N2994      O2998   1.262       .  A
N2994      O2997   1.262       .  A
C2999      C3000   1.400       .  A
C2999      C3004   1.399       .  A
C2999      H3006   1.084       .  S
C3000      C3001   1.413       .  A
C3001      C3002   1.400       .  A
C3001      N3008   1.430       .  S
C3002      C3003   1.403       .  A
C3002      H3007   1.084       .  S
C3003      C3004   1.415       .  A
C3004      N3005   1.429       .  S
N3005      O3009   1.262       .  A
N3005      O3010   1.262       .  A
N3008      O3012   1.262       .  A
N3008      O3011   1.262       .  A
C3013      C3014   1.401       .  A
C3013      C3018   1.399   1_455  A
C3013      H3020   1.085       .  S
C3014      C3015   1.414       .  A
C3015      C3016   1.399       .  A
C3015      N3022   1.430       .  S
C3016      C3017   1.403   1_455  A
C3016      H3021   1.085       .  S
C3017      C3018   1.415       .  A
C3018      N3019   1.429       .  S
N3019      O3023   1.262       .  A
N3019      O3024   1.261       .  A
N3022      O3026   1.262       .  A
N3022      O3025   1.262       .  A
C3027      C3028   1.404       .  A
C3027      C3032   1.401       .  A
C3027      H3034   1.083       .  S
C3028      C3029   1.415       .  A
C3029      C3030   1.400       .  A
C3029      N3036   1.430       .  S
C3030      C3031   1.403       .  A
C3030      H3035   1.084       .  S
C3031      C3032   1.413       .  A
C3032      N3033   1.429       .  S
N3033      O3037   1.262       .  A
N3033      O3038   1.262       .  A
N3036      O3040   1.262       .  A
N3036      O3039   1.262       .  A
C3041      C3042   1.405       .  A
C3041      C3046   1.398       .  A
C3041      H3048   1.086       .  S
C3042      C3043   1.410       .  A
C3043      C3044   1.397       .  A
C3043      N3050   1.428       .  S
C3044      C3045   1.405       .  A
C3044      H3049   1.086       .  S
C3045      C3046   1.412       .  A
C3046      N3047   1.429       .  S
N3047      O3051   1.262       .  A
N3047      O3052   1.262       .  A
N3050      O3054   1.262       .  A
N3050      O3053   1.262       .  A
C3055      C3056   1.402       .  A
C3055      C3060   1.398       .  A
C3055      H3062   1.085       .  S
C3056      C3057   1.415       .  A
C3057      C3058   1.403       .  A
C3057      N3064   1.429       .  S
C3058      C3059   1.402       .  A
C3058      H3063   1.085       .  S
C3059      C3060   1.413       .  A
C3060      N3061   1.430       .  S
N3061      O3065   1.262       .  A
N3061      O3066   1.262       .  A
N3064      O3068   1.262       .  A
N3064      O3067   1.262       .  A
C3069      C3070   1.407       .  A
C3069      C3074   1.398       .  A
C3069      H3076   1.084       .  S
C3070      C3071   1.412       .  A
C3071      C3072   1.404       .  A
C3071      N3078   1.428       .  S
C3072      C3073   1.406       .  A
C3072      H3077   1.084       .  S
C3073      C3074   1.412       .  A
C3074      N3075   1.430       .  S
N3075      O3079   1.262       .  A
N3075      O3080   1.262       .  A
N3078      O3082   1.262       .  A
N3078      O3081   1.262       .  A
C3083      C3084   1.407       .  A
C3083      C3088   1.401       .  A
C3083      H3090   1.085       .  S
C3084      C3085   1.414       .  A
C3085      C3086   1.405       .  A
C3085      N3092   1.429       .  S
C3086      C3087   1.407       .  A
C3086      H3091   1.085       .  S
C3087      C3088   1.411       .  A
C3088      N3089   1.428       .  S
N3089      O3093   1.262       .  A
N3089      O3094   1.262       .  A
N3092      O3096   1.262       .  A
N3092      O3095   1.262       .  A
C3097      C3098   1.410       .  A
C3097      C3102   1.407       .  A
C3097      H3104   1.084       .  S
C3098      C3099   1.413       .  A
C3099      C3100   1.400       .  A
C3099      N3106   1.430       .  S
C3100      C3101   1.406       .  A
C3100      H3105   1.085       .  S
C3101      C3102   1.411       .  A
C3102      N3103   1.428       .  S
N3103      O3107   1.262       .  A
N3103      O3108   1.262       .  A
N3106      O3110   1.262       .  A
N3106      O3109   1.262       .  A
C3111      C3112   1.404       .  A
C3111      C3116   1.404       .  A
C3111      H3118   1.083       .  S
C3112      C3113   1.415       .  A
C3113      C3114   1.400       .  A
C3113      N3120   1.429       .  S
C3114      C3115   1.403       .  A
C3114      H3119   1.083       .  S
C3115      C3116   1.416       .  A
C3116      N3117   1.429       .  S
N3117      O3121   1.262       .  A
N3117      O3122   1.262       .  A
N3120      O3124   1.262       .  A
N3120      O3123   1.262       .  A
C3125      C3126   1.406       .  A
C3125      C3130   1.402       .  A
C3125      H3132   1.084       .  S
C3126      C3127   1.411       .  A
C3127      C3128   1.399       .  A
C3127      N3134   1.429       .  S
C3128      C3129   1.407       .  A
C3128      H3133   1.084       .  S
C3129      C3130   1.413       .  A
C3130      N3131   1.428       .  S
N3131      O3135   1.262       .  A
N3131      O3136   1.262       .  A
N3134      O3138   1.262       .  A
N3134      O3137   1.262       .  A
C3139      C3140   1.404       .  A
C3139      C3144   1.399       .  A
C3139      H3146   1.084       .  S
C3140      C3141   1.416       .  A
C3141      C3142   1.405       .  A
C3141      N3148   1.428       .  S
C3142      C3143   1.404       .  A
C3142      H3147   1.084       .  S
C3143      C3144   1.415       .  A
C3144      N3145   1.428       .  S
N3145      O3149   1.262       .  A
N3145      O3150   1.262       .  A
N3148      O3152   1.262       .  A
N3148      O3151   1.262       .  A
C3153      C3154   1.400       .  A
C3153      C3158   1.402       .  A
C3153      H3160   1.083       .  S
C3154      C3155   1.411       .  A
C3155      C3156   1.399       .  A
C3155      N3162   1.430   1_556  S
C3156      C3157   1.405       .  A
C3156      H3161   1.083       .  S
C3157      C3158   1.418       .  A
C3158      N3159   1.429       .  S
N3159      O3163   1.262       .  A
N3159      O3164   1.262       .  A
N3162      O3166   1.262       .  A
N3162      O3165   1.262       .  A
C3167      C3168   1.411       .  A
C3167      C3172   1.409       .  A
C3167      H3174   1.084       .  S
C3168      C3169   1.414       .  A
C3169      C3170   1.399       .  A
C3169      N3176   1.429       .  S
C3170      C3171   1.403       .  A
C3170      H3175   1.084       .  S
C3171      C3172   1.412       .  A
C3172      N3173   1.429       .  S
N3173      O3177   1.262       .  A
N3173      O3178   1.262       .  A
N3176      O3180   1.262       .  A
N3176      O3179   1.262       .  A
C3181      C3182   1.397       .  A
C3181      C3186   1.399       .  A
C3181      H3188   1.084       .  S
C3182      C3183   1.413       .  A
C3183      C3184   1.400       .  A
C3183      N3190   1.429       .  S
C3184      C3185   1.404       .  A
C3184      H3189   1.083       .  S
C3185      C3186   1.418       .  A
C3186      N3187   1.425       .  S
N3187      O3191   1.262       .  A
N3187      O3192   1.262       .  A
N3190      O3194   1.262       .  A
N3190      O3193   1.262       .  A
C3195      C3196   1.404       .  A
C3195      C3200   1.406       .  A
C3195      H3202   1.084       .  S
C3196      C3197   1.414       .  A
C3197      C3198   1.405       .  A
C3197      N3204   1.429       .  S
C3198      C3199   1.406       .  A
C3198      H3203   1.084       .  S
C3199      C3200   1.417       .  A
C3200      N3201   1.429       .  S
N3201      O3205   1.262       .  A
N3201      O3206   1.262       .  A
N3204      O3208   1.262       .  A
N3204      O3207   1.262       .  A
C3209      C3210   1.406       .  A
C3209      C3214   1.402       .  A
C3209      H3216   1.086       .  S
C3210      C3211   1.414       .  A
C3211      C3212   1.401       .  A
C3211      N3218   1.428       .  S
C3212      C3213   1.405       .  A
C3212      H3217   1.086       .  S
C3213      C3214   1.414       .  A
C3214      N3215   1.429       .  S
N3215      O3219   1.262       .  A
N3215      O3220   1.262       .  A
N3218      O3222   1.262       .  A
N3218      O3221   1.262       .  A
C3223      C3224   1.406       .  A
C3223      C3228   1.397       .  A
C3223      H3230   1.084       .  S
C3224      C3225   1.413       .  A
C3225      C3226   1.405       .  A
C3225      N3232   1.429       .  S
C3226      C3227   1.407       .  A
C3226      H3231   1.084       .  S
C3227      C3228   1.412       .  A
C3228      N3229   1.429       .  S
N3229      O3233   1.262       .  A
N3229      O3234   1.262       .  A
N3232      O3236   1.262       .  A
N3232      O3235   1.262       .  A
C3237      C3238   1.401   1_545  A
C3237      C3242   1.402       .  A
C3237      H3244   1.084       .  S
C3238      C3239   1.414       .  A
C3239      C3240   1.399   1_565  A
C3239      N3246   1.430       .  S
C3240      C3241   1.404       .  A
C3240      H3245   1.084       .  S
C3241      C3242   1.417       .  A
C3242      N3243   1.429       .  S
N3243      O3247   1.262       .  A
N3243      O3248   1.262       .  A
N3246      O3250   1.262       .  A
N3246      O3249   1.262       .  A
C3251      C3252   1.405       .  A
C3251      C3256   1.402   1_565  A
C3251      H3258   1.085       .  S
C3252      C3253   1.412       .  A
C3253      C3254   1.401   1_565  A
C3253      N3260   1.428       .  S
C3254      C3255   1.406       .  A
C3254      H3259   1.085       .  S
C3255      C3256   1.413       .  A
C3256      N3257   1.429       .  S
N3257      O3261   1.262       .  A
N3257      O3262   1.262   1_545  A
N3260      O3264   1.262       .  A
N3260      O3263   1.262   1_565  A
C3265      C3266   1.404       .  A
C3265      C3270   1.395       .  A
C3265      H3272   1.085       .  S
C3266      C3267   1.411       .  A
C3267      C3268   1.403       .  A
C3267      N3274   1.429       .  S
C3268      C3269   1.408       .  A
C3268      H3273   1.084       .  S
C3269      C3270   1.413       .  A
C3270      N3271   1.429       .  S
N3271      O3275   1.262       .  A
N3271      O3276   1.262       .  A
N3274      O3278   1.262       .  A
N3274      O3277   1.262       .  A
C3279      C3280   1.408       .  A
C3279      C3284   1.406       .  A
C3279      H3286   1.084       .  S
C3280      C3281   1.412       .  A
C3281      C3282   1.398       .  A
C3281      N3288   1.429       .  S
C3282      C3283   1.405       .  A
C3282      H3287   1.085       .  S
C3283      C3284   1.412       .  A
C3284      N3285   1.428       .  S
N3285      O3289   1.262       .  A
N3285      O3290   1.262       .  A
N3288      O3292   1.262       .  A
N3288      O3291   1.262       .  A
C3293      C3294   1.403       .  A
C3293      C3298   1.401       .  A
C3293      H3300   1.085       .  S
C3294      C3295   1.415       .  A
C3295      C3296   1.407       .  A
C3295      N3302   1.429       .  S
C3296      C3297   1.407       .  A
C3296      H3301   1.085       .  S
C3297      C3298   1.416       .  A
C3298      N3299   1.428       .  S
N3299      O3303   1.262   1_556  A
N3299      O3304   1.262       .  A
N3302      O3306   1.262       .  A
N3302      O3305   1.262       .  A
C3307      C3308   1.408       .  A
C3307      C3312   1.404       .  A
C3307      H3314   1.086       .  S
C3308      C3309   1.412       .  A
C3309      C3310   1.401       .  A
C3309      N3316   1.428       .  S
C3310      C3311   1.406       .  A
C3310      H3315   1.086       .  S
C3311      C3312   1.413       .  A
C3312      N3313   1.429       .  S
N3313      O3317   1.262       .  A
N3313      O3318   1.262       .  A
N3316      O3320   1.262       .  A
N3316      O3319   1.262       .  A
C3321      C3322   1.409       .  A
C3321      C3326   1.405       .  A
C3321      H3328   1.085       .  S
C3322      C3323   1.414       .  A
C3323      C3324   1.399       .  A
C3323      N3330   1.429       .  S
C3324      C3325   1.404       .  A
C3324      H3329   1.086       .  S
C3325      C3326   1.410       .  A
C3326      N3327   1.428       .  S
N3327      O3331   1.262       .  A
N3327      O3332   1.262       .  A
N3330      O3334   1.262       .  A
N3330      O3333   1.262       .  A
C3335      C3336   1.408       .  A
C3335      C3340   1.402       .  A
C3335      H3342   1.086       .  S
C3336      C3337   1.412       .  A
C3337      C3338   1.404       .  A
C3337      N3344   1.428       .  S
C3338      C3339   1.407       .  A
C3338      H3343   1.086       .  S
C3339      C3340   1.413       .  A
C3340      N3341   1.429       .  S
N3341      O3345   1.262       .  A
N3341      O3346   1.262       .  A
N3344      O3348   1.262       .  A
N3344      O3347   1.262       .  A
C3349      C3350   1.405       .  A
C3349      C3354   1.407   1_655  A
C3349      H3356   1.084       .  S
C3350      C3351   1.416       .  A
C3351      C3352   1.409       .  A
C3351      N3358   1.428       .  S
C3352      C3353   1.407   1_655  A
C3352      H3357   1.084       .  S
C3353      C3354   1.418       .  A
C3354      N3355   1.428       .  S
N3355      O3359   1.262       .  A
N3355      O3360   1.262       .  A
N3358      O3362   1.262       .  A
N3358      O3361   1.262       .  A
C3363      C3364   1.405       .  A
C3363      C3368   1.402   1_545  A
C3363      H3370   1.085       .  S
C3364      C3365   1.419       .  A
C3365      C3366   1.406       .  A
C3365      N3372   1.428       .  S
C3366      C3367   1.403   1_545  A
C3366      H3371   1.085       .  S
C3367      C3368   1.414       .  A
C3368      N3369   1.429       .  S
N3369      O3373   1.262       .  A
N3369      O3374   1.262       .  A
N3372      O3376   1.262       .  A
N3372      O3375   1.262       .  A
C3377      C3378   1.406       .  A
C3377      C3382   1.403       .  A
C3377      H3384   1.085       .  S
C3378      C3379   1.412       .  A
C3379      C3380   1.405       .  A
C3379      N3386   1.428       .  S
C3380      C3381   1.409       .  A
C3380      H3385   1.084       .  S
C3381      C3382   1.414       .  A
C3382      N3383   1.429       .  S
N3383      O3387   1.262       .  A
N3383      O3388   1.262       .  A
N3386      O3390   1.262       .  A
N3386      O3389   1.262       .  A
C3391      C3392   1.407       .  A
C3391      C3396   1.403       .  A
C3391      H3398   1.086       .  S
C3392      C3393   1.413       .  A
C3393      C3394   1.401       .  A
C3393      N3400   1.428       .  S
C3394      C3395   1.405       .  A
C3394      H3399   1.086       .  S
C3395      C3396   1.413       .  A
C3396      N3397   1.429       .  S
N3397      O3401   1.262       .  A
N3397      O3402   1.262       .  A
N3400      O3404   1.262       .  A
N3400      O3403   1.262       .  A
C3405      C3406   1.403       .  A
C3405      C3410   1.402       .  A
C3405      H3412   1.085       .  S
C3406      C3407   1.415       .  A
C3407      C3408   1.403       .  A
C3407      N3414   1.429       .  S
C3408      C3409   1.406       .  A
C3408      H3413   1.084       .  S
C3409      C3410   1.416       .  A
C3410      N3411   1.428       .  S
N3411      O3415   1.262       .  A
N3411      O3416   1.262       .  A
N3414      O3418   1.261       .  A
N3414      O3417   1.262       .  A
C3419      C3420   1.403       .  A
C3419      C3424   1.393       .  A
C3419      H3426   1.096       .  S
C3420      C3421   1.412       .  A
C3421      C3422   1.403       .  A
C3421      N3428   1.428       .  S
C3422      C3423   1.406       .  A
C3422      H3427   1.095       .  S
C3423      C3424   1.412       .  A
C3424      N3425   1.429       .  S
N3425      O3429   1.262       .  A
N3425      O3430   1.262       .  A
N3428      O3432   1.262       .  A
N3428      O3431   1.262       .  A
C3433      C3434   1.405       .  A
C3433      C3438   1.403   1_545  A
C3433      H3440   1.084       .  S
C3434      C3435   1.418       .  A
C3435      C3436   1.403       .  A
C3435      N3442   1.429       .  S
C3436      C3437   1.402   1_545  A
C3436      H3441   1.084       .  S
C3437      C3438   1.415       .  A
C3438      N3439   1.430       .  S
N3439      O3443   1.262       .  A
N3439      O3444   1.262       .  A
N3442      O3446   1.262       .  A
N3442      O3445   1.262       .  A
C3447      C3448   1.406       .  A
C3447      C3452   1.397       .  A
C3447      H3454   1.085       .  S
C3448      C3449   1.414       .  A
C3449      C3450   1.404       .  A
C3449      N3456   1.429       .  S
C3450      C3451   1.408       .  A
C3450      H3455   1.084       .  S
C3451      C3452   1.412       .  A
C3452      N3453   1.428       .  S
N3453      O3457   1.262       .  A
N3453      O3458   1.262       .  A
N3456      O3460   1.262       .  A
N3456      O3459   1.262       .  A
C3461      C3462   1.407       .  A
C3461      C3466   1.402       .  A
C3461      H3468   1.084       .  S
C3462      C3463   1.411       .  A
C3463      C3464   1.398       .  A
C3463      N3470   1.429       .  S
C3464      C3465   1.405       .  A
C3464      H3469   1.085       .  S
C3465      C3466   1.412       .  A
C3466      N3467   1.429       .  S
N3467      O3471   1.262       .  A
N3467      O3472   1.262       .  A
N3470      O3474   1.262       .  A
N3470      O3473   1.262       .  A
C3475      C3476   1.407       .  A
C3475      C3480   1.403       .  A
C3475      H3482   1.085       .  S
C3476      C3477   1.414       .  A
C3477      C3478   1.403       .  A
C3477      N3484   1.429       .  S
C3478      C3479   1.405       .  A
C3478      H3483   1.085       .  S
C3479      C3480   1.412       .  A
C3480      N3481   1.428       .  S
N3481      O3485   1.262       .  A
N3481      O3486   1.262       .  A
N3484      O3488   1.262       .  A
N3484      O3487   1.262       .  A
C3489      C3490   1.406       .  A
C3489      C3494   1.402       .  A
C3489      H3496   1.085       .  S
C3490      C3491   1.414       .  A
C3491      C3492   1.400       .  A
C3491      N3498   1.430       .  S
C3492      C3493   1.405       .  A
C3492      H3497   1.086       .  S
C3493      C3494   1.410       .  A
C3494      N3495   1.428       .  S
N3495      O3499   1.262       .  A
N3495      O3500   1.262       .  A
N3498      O3502   1.262       .  A
N3498      O3501   1.262       .  A
C3503      C3504   1.401       .  A
C3503      C3508   1.402       .  A
C3503      H3510   1.085       .  S
C3504      C3505   1.414       .  A
C3505      C3506   1.398       .  A
C3505      N3512   1.429       .  S
C3506      C3507   1.403       .  A
C3506      H3511   1.085       .  S
C3507      C3508   1.418       .  A
C3508      N3509   1.429       .  S
N3509      O3513   1.262       .  A
N3509      O3514   1.262       .  A
N3512      O3516   1.261       .  A
N3512      O3515   1.262       .  A
C3517      C3518   1.407       .  A
C3517      C3522   1.402   1_565  A
C3517      H3524   1.084       .  S
C3518      C3519   1.410   1_565  A
C3519      C3520   1.396       .  A
C3519      N3526   1.429       .  S
C3520      C3521   1.405       .  A
C3520      H3525   1.084       .  S
C3521      C3522   1.412       .  A
C3522      N3523   1.429       .  S
N3523      O3527   1.262   1_545  A
N3523      O3528   1.261       .  A
N3526      O3530   1.262       .  A
N3526      O3529   1.262       .  A
C3531      C3532   1.409       .  A
C3531      C3536   1.405       .  A
C3531      H3538   1.084       .  S
C3532      C3533   1.413       .  A
C3533      C3534   1.397       .  A
C3533      N3540   1.429       .  S
C3534      C3535   1.405       .  A
C3534      H3539   1.085       .  S
C3535      C3536   1.411       .  A
C3536      N3537   1.428       .  S
N3537      O3541   1.262       .  A
N3537      O3542   1.262       .  A
N3540      O3544   1.262       .  A
N3540      O3543   1.262       .  A
C3545      C3546   1.406       .  A
C3545      C3550   1.401       .  A
C3545      H3552   1.085       .  S
C3546      C3547   1.417       .  A
C3547      C3548   1.405       .  A
C3547      N3554   1.428       .  S
C3548      C3549   1.403       .  A
C3548      H3553   1.085       .  S
C3549      C3550   1.413       .  A
C3550      N3551   1.429       .  S
N3551      O3555   1.262       .  A
N3551      O3556   1.262       .  A
N3554      O3558   1.262       .  A
N3554      O3557   1.262       .  A
C3559      C3560   1.405       .  A
C3559      C3564   1.398       .  A
C3559      H3566   1.085       .  S
C3560      C3561   1.411       .  A
C3561      C3562   1.404       .  A
C3561      N3568   1.429       .  S
C3562      C3563   1.408       .  A
C3562      H3567   1.085       .  S
C3563      C3564   1.412       .  A
C3564      N3565   1.429       .  S
N3565      O3569   1.262       .  A
N3565      O3570   1.262       .  A
N3568      O3572   1.262       .  A
N3568      O3571   1.262       .  A
C3573      C3574   1.405       .  A
C3573      C3578   1.397       .  A
C3573      H3580   1.086       .  S
C3574      C3575   1.412       .  A
C3575      C3576   1.405       .  A
C3575      N3582   1.428       .  S
C3576      C3577   1.408       .  A
C3576      H3581   1.086       .  S
C3577      C3578   1.414       .  A
C3578      N3579   1.429       .  S
N3579      O3583   1.262       .  A
N3579      O3584   1.262       .  A
N3582      O3586   1.262       .  A
N3582      O3585   1.262       .  A
C3587      C3588   1.406       .  A
C3587      C3592   1.404       .  A
C3587      H3594   1.086       .  S
C3588      C3589   1.414       .  A
C3589      C3590   1.405       .  A
C3589      N3596   1.428       .  S
C3590      C3591   1.406       .  A
C3590      H3595   1.086       .  S
C3591      C3592   1.414       .  A
C3592      N3593   1.429       .  S
N3593      O3597   1.262       .  A
N3593      O3598   1.262       .  A
N3596      O3600   1.262       .  A
N3596      O3599   1.262       .  A
C3601      C3602   1.401       .  A
C3601      C3606   1.402       .  A
C3601      H3608   1.085       .  S
C3602      C3603   1.414       .  A
C3603      C3604   1.401       .  A
C3603      N3610   1.430       .  S
C3604      C3605   1.404       .  A
C3604      H3609   1.084       .  S
C3605      C3606   1.418       .  A
C3606      N3607   1.429       .  S
N3607      O3611   1.262       .  A
N3607      O3612   1.262       .  A
N3610      O3614   1.262       .  A
N3610      O3613   1.262       .  A
C3615      C3616   1.407       .  A
C3615      C3620   1.403       .  A
C3615      H3622   1.085       .  S
C3616      C3617   1.414       .  A
C3617      C3618   1.401       .  A
C3617      N3624   1.429       .  S
C3618      C3619   1.405       .  A
C3618      H3623   1.085       .  S
C3619      C3620   1.411       .  A
C3620      N3621   1.428       .  S
N3621      O3625   1.262       .  A
N3621      O3626   1.262       .  A
N3624      O3628   1.262       .  A
N3624      O3627   1.262       .  A
C3629      C3630   1.402       .  A
C3629      C3634   1.399       .  A
C3629      H3636   1.085       .  S
C3630      C3631   1.415       .  A
C3631      C3632   1.401       .  A
C3631      N3638   1.429       .  S
C3632      C3633   1.404       .  A
C3632      H3637   1.085       .  S
C3633      C3634   1.415       .  A
C3634      N3635   1.428       .  S
N3635      O3639   1.261       .  A
N3635      O3640   1.261       .  A
N3638      O3642   1.261       .  A
N3638      O3641   1.262       .  A
C3643      C3644   1.403       .  A
C3643      C3648   1.398       .  A
C3643      H3650   1.083       .  S
C3644      C3645   1.416       .  A
C3645      C3646   1.405       .  A
C3645      N3652   1.428       .  S
C3646      C3647   1.403       .  A
C3646      H3651   1.083       .  S
C3647      C3648   1.415       .  A
C3648      N3649   1.429       .  S
N3649      O3653   1.262       .  A
N3649      O3654   1.262       .  A
N3652      O3656   1.262       .  A
N3652      O3655   1.261       .  A
C3657      C3658   1.408       .  A
C3657      C3662   1.401       .  A
C3657      H3664   1.086       .  S
C3658      C3659   1.413       .  A
C3659      C3660   1.401       .  A
C3659      N3666   1.429       .  S
C3660      C3661   1.405       .  A
C3660      H3665   1.086       .  S
C3661      C3662   1.409       .  A
C3662      N3663   1.429       .  S
N3663      O3667   1.262       .  A
N3663      O3668   1.262       .  A
N3666      O3670   1.262       .  A
N3666      O3669   1.262       .  A
C3671      C3672   1.403       .  A
C3671      C3676   1.401       .  A
C3671      H3678   1.085       .  S
C3672      C3673   1.414       .  A
C3673      C3674   1.401       .  A
C3673      N3680   1.429       .  S
C3674      C3675   1.405       .  A
C3674      H3679   1.085       .  S
C3675      C3676   1.416       .  A
C3676      N3677   1.429       .  S
N3677      O3681   1.262       .  A
N3677      O3682   1.262       .  A
N3680      O3684   1.262       .  A
N3680      O3683   1.262       .  A
C3685      C3686   1.405       .  A
C3685      C3690   1.400       .  A
C3685      H3692   1.084       .  S
C3686      C3687   1.415       .  A
C3687      C3688   1.399       .  A
C3687      N3694   1.428       .  S
C3688      C3689   1.400       .  A
C3688      H3693   1.084       .  S
C3689      C3690   1.412       .  A
C3690      N3691   1.430       .  S
N3691      O3695   1.262       .  A
N3691      O3696   1.262       .  A
N3694      O3698   1.262       .  A
N3694      O3697   1.262       .  A
C3699      C3700   1.409       .  A
C3699      C3704   1.405       .  A
C3699      H3706   1.085       .  S
C3700      C3701   1.413       .  A
C3701      C3702   1.396       .  A
C3701      N3708   1.429       .  S
C3702      C3703   1.404       .  A
C3702      H3707   1.086       .  S
C3703      C3704   1.411       .  A
C3704      N3705   1.428       .  S
N3705      O3709   1.262       .  A
N3705      O3710   1.262       .  A
N3708      O3712   1.262       .  A
N3708      O3711   1.262       .  A
C3713      C3714   1.403       .  A
C3713      C3718   1.399       .  A
C3713      H3720   1.086       .  S
C3714      C3715   1.415       .  A
C3715      C3716   1.398       .  A
C3715      N3722   1.428       .  S
C3716      C3717   1.401       .  A
C3716      H3721   1.086       .  S
C3717      C3718   1.414       .  A
C3718      N3719   1.429       .  S
N3719      O3723   1.262       .  A
N3719      O3724   1.261       .  A
N3722      O3726   1.261       .  A
N3722      O3725   1.261       .  A
C3727      C3728   1.401       .  A
C3727      C3732   1.399       .  A
C3727      H3734   1.085       .  S
C3728      C3729   1.416       .  A
C3729      C3730   1.402       .  A
C3729      N3736   1.428       .  S
C3730      C3731   1.401       .  A
C3730      H3735   1.085       .  S
C3731      C3732   1.415       .  A
C3732      N3733   1.429       .  S
N3733      O3737   1.261       .  A
N3733      O3738   1.262       .  A
N3736      O3740   1.262       .  A
N3736      O3739   1.262       .  A
C3741      C3742   1.403   1_554  A
C3741      C3746   1.403       .  A
C3741      H3748   1.084   1_554  S
C3742      C3743   1.415       .  A
C3743      C3744   1.399   1_556  A
C3743      N3750   1.429       .  S
C3744      C3745   1.403       .  A
C3744      H3749   1.085       .  S
C3745      C3746   1.414       .  A
C3746      N3747   1.428       .  S
N3747      O3751   1.262       .  A
N3747      O3752   1.262       .  A
N3750      O3754   1.262       .  A
N3750      O3753   1.262       .  A
C3755      C3756   1.406       .  A
C3755      C3760   1.401   1_554  A
C3755      H3762   1.085       .  S
C3756      C3757   1.414       .  A
C3757      C3758   1.401   1_554  A
C3757      N3764   1.429       .  S
C3758      C3759   1.404       .  A
C3758      H3763   1.085       .  S
C3759      C3760   1.412       .  A
C3760      N3761   1.428       .  S
N3761      O3765   1.262       .  A
N3761      O3766   1.262       .  A
N3764      O3768   1.262   1_554  A
N3764      O3767   1.262       .  A
C3769      C3770   1.404       .  A
C3769      C3774   1.397       .  A
C3769      H3776   1.085       .  S
C3770      C3771   1.411       .  A
C3771      C3772   1.401       .  A
C3771      N3778   1.429       .  S
C3772      C3773   1.407       .  A
C3772      H3777   1.085       .  S
C3773      C3774   1.412       .  A
C3774      N3775   1.429       .  S
N3775      O3779   1.262       .  A
N3775      O3780   1.262       .  A
N3778      O3782   1.262       .  A
N3778      O3781   1.262       .  A
C3783      C3784   1.407       .  A
C3783      C3788   1.399       .  A
C3783      H3790   1.083       .  S
C3784      C3785   1.413       .  A
C3785      C3786   1.398       .  A
C3785      N3792   1.429       .  S
C3786      C3787   1.404       .  A
C3786      H3791   1.084       .  S
C3787      C3788   1.409       .  A
C3788      N3789   1.429       .  S
N3789      O3793   1.262       .  A
N3789      O3794   1.261       .  A
N3792      O3796   1.262       .  A
N3792      O3795   1.262       .  A
C3797      C3798   1.407       .  A
C3797      C3802   1.402       .  A
C3797      H3804   1.085       .  S
C3798      C3799   1.416       .  A
C3799      C3800   1.406       .  A
C3799      N3806   1.429       .  S
C3800      C3801   1.406       .  A
C3800      H3805   1.086       .  S
C3801      C3802   1.412       .  A
C3802      N3803   1.429       .  S
N3803      O3807   1.262       .  A
N3803      O3808   1.262       .  A
N3806      O3810   1.262       .  A
N3806      O3809   1.262       .  A
C3811      C3812   1.404       .  A
C3811      C3816   1.399       .  A
C3811      H3818   1.085       .  S
C3812      C3813   1.412       .  A
C3813      C3814   1.404       .  A
C3813      N3820   1.429       .  S
C3814      C3815   1.408       .  A
C3814      H3819   1.085       .  S
C3815      C3816   1.414       .  A
C3816      N3817   1.428       .  S
N3817      O3821   1.262       .  A
N3817      O3822   1.262       .  A
N3820      O3824   1.262       .  A
N3820      O3823   1.262       .  A
C3825      C3826   1.409       .  A
C3825      C3830   1.407       .  A
C3825      H3832   1.084       .  S
C3826      C3827   1.414       .  A
C3827      C3828   1.397       .  A
C3827      N3834   1.430       .  S
C3828      C3829   1.404       .  A
C3828      H3833   1.084       .  S
C3829      C3830   1.411       .  A
C3830      N3831   1.428       .  S
N3831      O3835   1.262       .  A
N3831      O3836   1.262       .  A
N3834      O3838   1.262       .  A
N3834      O3837   1.262       .  A
C3839      C3840   1.405       .  A
C3839      C3844   1.398       .  A
C3839      H3846   1.086       .  S
C3840      C3841   1.410       .  A
C3841      C3842   1.405       .  A
C3841      N3848   1.428       .  S
C3842      C3843   1.409       .  A
C3842      H3847   1.085       .  S
C3843      C3844   1.413       .  A
C3844      N3845   1.429       .  S
N3845      O3849   1.262       .  A
N3845      O3850   1.262       .  A
N3848      O3852   1.262       .  A
N3848      O3851   1.262       .  A
C3853      C3854   1.403       .  A
C3853      C3858   1.402   1_565  A
C3853      H3860   1.085       .  S
C3854      C3855   1.414       .  A
C3855      C3856   1.404       .  A
C3855      N3862   1.429       .  S
C3856      C3857   1.406   1_565  A
C3856      H3861   1.085   1_565  S
C3857      C3858   1.415       .  A
C3858      N3859   1.429       .  S
N3859      O3863   1.262       .  A
N3859      O3864   1.262       .  A
N3862      O3866   1.262       .  A
N3862      O3865   1.262       .  A
C3867      C3868   1.404   1_554  A
C3867      C3872   1.403       .  A
C3867      H3874   1.084       .  S
C3868      C3869   1.415       .  A
C3869      C3870   1.399   1_556  A
C3869      N3876   1.430       .  S
C3870      C3871   1.402       .  A
C3870      H3875   1.084       .  S
C3871      C3872   1.414       .  A
C3872      N3873   1.429       .  S
N3873      O3877   1.262       .  A
N3873      O3878   1.262       .  A
N3876      O3880   1.262       .  A
N3876      O3879   1.262       .  A
C3881      C3882   1.401       .  A
C3881      C3886   1.401       .  A
C3881      H3888   1.084       .  S
C3882      C3883   1.412       .  A
C3883      C3884   1.397       .  A
C3883      N3890   1.429       .  S
C3884      C3885   1.403       .  A
C3884      H3889   1.084       .  S
C3885      C3886   1.417       .  A
C3886      N3887   1.430       .  S
N3887      O3891   1.262       .  A
N3887      O3892   1.262       .  A
N3890      O3894   1.262       .  A
N3890      O3893   1.262       .  A
C3895      C3896   1.404       .  A
C3895      C3900   1.403       .  A
C3895      H3902   1.084       .  S
C3896      C3897   1.415       .  A
C3897      C3898   1.406       .  A
C3897      N3904   1.429       .  S
C3898      C3899   1.406       .  A
C3898      H3903   1.084       .  S
C3899      C3900   1.415       .  A
C3900      N3901   1.428       .  S
N3901      O3905   1.262       .  A
N3901      O3906   1.262       .  A
N3904      O3908   1.262       .  A
N3904      O3907   1.262       .  A
C3909      C3910   1.407       .  A
C3909      C3914   1.402       .  A
C3909      H3916   1.086       .  S
C3910      C3911   1.410       .  A
C3911      C3912   1.395       .  A
C3911      N3918   1.428       .  S
C3912      C3913   1.404       .  A
C3912      H3917   1.086       .  S
C3913      C3914   1.411       .  A
C3914      N3915   1.429       .  S
N3915      O3919   1.262       .  A
N3915      O3920   1.262       .  A
N3918      O3922   1.262       .  A
N3918      O3921   1.262       .  A
C3923      C3924   1.403       .  A
C3923      C3928   1.400       .  A
C3923      H3930   1.085       .  S
C3924      C3925   1.415       .  A
C3925      C3926   1.403       .  A
C3925      N3932   1.429       .  S
C3926      C3927   1.404       .  A
C3926      H3931   1.085       .  S
C3927      C3928   1.415       .  A
C3928      N3929   1.429       .  S
N3929      O3933   1.262       .  A
N3929      O3934   1.262       .  A
N3932      O3936   1.262       .  A
N3932      O3935   1.262       .  A
