geometry optimzed in LAMMPS
_audit_creation_date              2020-12-01 
_audit_creation_method            'lammps2cif' 
_symmetry_space_group_name_H-M    'P1' 
_symmetry_Int_Tables_number       1 
_symmetry_cell_setting            triclinic 
loop_ 
_symmetry_equiv_pos_as_xyz 
  x,y,z 
_cell_length_a                    45.14238064 
_cell_length_b                    45.09467016365219 
_cell_length_c                    86.5155951489155 
_cell_angle_alpha                 90.08170059320774 
_cell_angle_beta                  89.98313558006527 
_cell_angle_gamma                 90.11988468657424 
loop_ 
_atom_site_label 
_atom_site_type_symbol 
_atom_site_fract_x 
_atom_site_fract_y 
_atom_site_fract_z 
_atom_site_charge 
C1          C  0.89754928  0.64456330  0.31057848     0.80000
N2          N  0.87226233  0.63274151  0.30475793    -0.78300
C3          C  0.85752909  0.61095553  0.31236195     0.82500
N4          N  0.86833862  0.60096031  0.32605268    -0.78200
C5          C  0.89373757  0.61247954  0.33204615     0.82600
N6          N  0.90816415  0.63433904  0.32425171    -0.79900
C7          C  0.77805720  0.76643626  0.12130080     0.80000
N8          N  0.76623702  0.74099653  0.12695121    -0.78300
C9          C  0.73894281  0.73163225  0.12254952     0.82500
N10         N  0.72320151  0.74821237  0.11234107    -0.78200
C11         C  0.73470538  0.77379584  0.10651048     0.82600
N12         N  0.76215473  0.78276864  0.11106081    -0.79900
C13         C  0.34695589  0.72476822  0.33270079     0.80000
N14         N  0.32013335  0.73501441  0.32806119    -0.78300
C15         C  0.30911276  0.76085628  0.33367880     0.82500
N16         N  0.32536266  0.77664906  0.34404347    -0.78200
C17         C  0.35228399  0.76679450  0.34883757     0.82600
N18         N  0.36297226  0.74084157  0.34307232    -0.79900
C19         C  0.87605587  0.29107453  0.10805231     0.80000
N20         N  0.85201594  0.30324275  0.11507450    -0.78300
C21         C  0.84068674  0.29103171  0.12814631     0.82500
N22         N  0.85363259  0.26653036  0.13415487    -0.78200
C23         C  0.87763439  0.25412974  0.12733518     0.82600
N24         N  0.88878205  0.26652485  0.11426979    -0.79900
C25         C  0.10908558  0.89302115  0.26172235     0.42300
N26         N  0.09849920  0.92687782  0.24522167     0.01200
C27         C  0.97135192  0.01254855  0.24209712    -0.06700
H28         H  0.95761324  0.89594394  0.23238534     0.06700
C29         C  0.01474798  0.90467789  0.18539320    -0.07100
Co30       Co  0.04297304  0.95903418  0.25334588     0.74200
N31         N  0.99185179  0.92644979  0.23955115    -0.26200
Co32       Co  0.99395331  0.95924189  0.22254218     0.74100
C33         C  0.98645911  0.89137890  0.18995156     0.42400
N34         N  0.08474544  0.92529862  0.19925929     0.00800
N35         N  0.99700802  0.92698728  0.20548052     0.00900
N36         N  0.00352897  0.01136570  0.26210507    -0.47100
H37         H  0.06658859  0.90241241  0.27571392     0.06600
N38         N  0.01055531  0.92645598  0.25128013     0.01200
N39         N  0.99842134  0.99186490  0.20548715     0.00900
C40         C  0.99256593  0.02974781  0.19085584     0.42500
N41         N  0.10352354  0.92510654  0.21095852    -0.25700
C42         C  0.07790100  0.01475126  0.26381744    -0.06600
N43         N  0.11888216  0.90710912  0.24894241    -0.46800
N44         N  0.98065434  0.01468700  0.20286990    -0.47000
C45         C  0.10480330  0.03003369  0.25891535     0.42300
N46         N  0.01016015  0.99119882  0.25153162     0.01200
N47         N  0.10499520  0.98991344  0.21032592    -0.25700
N48         N  0.07602212  0.92708224  0.25494624    -0.26200
N49         N  0.08636270  0.98980548  0.19860132     0.00800
H50         H  0.14399061  0.01571083  0.21545176     0.06700
H51         H  0.03480190  0.01893495  0.17697796     0.06700
N52         N  0.99154992  0.99125228  0.23979920    -0.26300
N53         N  0.01937754  0.92649393  0.19570123    -0.25900
N54         N  0.09822440  0.99169881  0.24460484     0.01200
C55         C  0.98493609  0.88686600  0.25440878     0.42600
C56         C  0.12076649  0.90096992  0.20970373    -0.07100
N57         N  0.02107959  0.99108721  0.19584514    -0.25900
H58         H  0.02889894  0.89959838  0.17566226     0.06700
N59         N  0.00724842  0.90316762  0.26039434    -0.47100
H60         H  0.13800783  0.89461894  0.21770572     0.06700
C61         C  0.11715524  0.02455418  0.19321766     0.42400
C62         C  0.08058883  0.90631167  0.26577627    -0.06600
Co63       Co  0.10206992  0.95843043  0.22780913     0.73800
N64         N  0.08803402  0.90237317  0.18991179    -0.46800
C65         C  0.97941873  0.02595449  0.25692372     0.42700
N66         N  0.11624814  0.01454297  0.24692115    -0.46800
Co67       Co  0.05298186  0.95814112  0.19701611     0.73900
C68         C  0.01928939  0.01406908  0.18615423    -0.07100
C69         C  0.97457112  0.90228303  0.24057266    -0.06700
N70         N  0.07562307  0.99149781  0.25429863    -0.26200
N71         N  0.97678646  0.90657904  0.20239579    -0.47000
H72         H  0.95255470  0.01684092  0.23469636     0.06700
C73         C  0.12527004  0.01120303  0.20801375    -0.07100
Cl74       Cl  0.04800298  0.95873654  0.22518191    -0.50100
C75         C  0.11030889  0.88596694  0.19569891     0.42400
H76         H  0.06233209  0.02027953  0.27286073     0.06600
N77         N  0.09300250  0.00993915  0.18803067    -0.46800
C78         C  0.19873355  0.61216371  0.11386365     0.80000
N79         N  0.22310450  0.59951522  0.12034894    -0.78300
C80         C  0.23503722  0.61085776  0.13349671     0.82500
N81         N  0.22254755  0.63506539  0.14005944    -0.78200
C82         C  0.19843156  0.64814493  0.13374104     0.82600
N83         N  0.18651796  0.63655660  0.12061878    -0.79900
C84         C  0.77783916  0.15117198  0.33004109     0.80000
N85         N  0.76151127  0.13426967  0.33988632    -0.78300
C86         C  0.73437408  0.14344487  0.34475087     0.82500
N87         N  0.72358990  0.16977460  0.33958984    -0.78200
C88         C  0.73962924  0.18690696  0.32973533     0.82600
N89         N  0.76668139  0.17739338  0.32502453    -0.79900
C90         C  0.19126074  0.31257114  0.33289585     0.80000
N91         N  0.21487251  0.32603820  0.32601293    -0.78300
C92         C  0.22640811  0.31509978  0.31266646     0.82500
N93         N  0.21428872  0.29046735  0.30631701    -0.78200
C94         C  0.19098174  0.27653023  0.31298877     0.82600
N95         N  0.17950472  0.28765355  0.32634384    -0.79900
C96         C  0.36184841  0.14181026  0.10646949     0.80000
N97         N  0.37135475  0.16919351  0.11086974    -0.78300
C98         C  0.35386392  0.18707024  0.11960197     0.82500
N99         N  0.32667942  0.17731322  0.12391287    -0.78200
C100        C  0.31680359  0.15007879  0.11968624     0.82600
N101        N  0.33455494  0.13230918  0.11100327    -0.79900
C102        C  0.61419648  0.51557947  0.25929592     0.42300
N103        N  0.57609812  0.50884106  0.24490160     0.01200
C104        C  0.48640849  0.38520572  0.24188084    -0.06700
H105        H  0.59967469  0.36227626  0.23602069     0.06700
C106        C  0.59908711  0.42711072  0.18707616    -0.07100
Co107      Co  0.54304551  0.45410869  0.25391707     0.74200
N108        N  0.57488609  0.40188101  0.24090279    -0.26200
Co109      Co  0.54332522  0.40412351  0.22349022     0.74100
C110        C  0.61388212  0.40001586  0.19196235     0.42400
N111        N  0.57592741  0.49569897  0.19901013     0.00800
N112        N  0.57632324  0.40751187  0.20658265     0.00900
N113        N  0.48775310  0.41838326  0.26152671    -0.47100
H114        H  0.60392900  0.47354885  0.27351549     0.06600
N115        N  0.57491532  0.42069904  0.25257556     0.01200
N116        N  0.51172410  0.40696770  0.20616552     0.00900
C117        C  0.47774173  0.39531210  0.18992624     0.42500
N118        N  0.57552920  0.51441704  0.21071376    -0.25700
C119        C  0.48986501  0.49275656  0.26541852    -0.06600
N120        N  0.59895101  0.52683050  0.24719714    -0.46800
N121        N  0.49184025  0.38637870  0.20283771    -0.47000
C122        C  0.47650998  0.52087346  0.26064852     0.42300
N123        N  0.51041247  0.42190084  0.25203128     0.01200
N124        N  0.51065712  0.51348231  0.21066071    -0.25700
N125        N  0.57563856  0.48649331  0.25473874    -0.26200
N126        N  0.51115585  0.49447336  0.19904415     0.00800
H127        H  0.47983799  0.54790906  0.21714638     0.06700
H128        H  0.48714101  0.43701619  0.17523972     0.06700
N129        N  0.51024144  0.40285010  0.24042909    -0.26300
N130        N  0.57624661  0.42991253  0.19677005    -0.25900
N131        N  0.51135805  0.50949111  0.24488283     0.01200
C132        C  0.60890656  0.38923381  0.25820062     0.42600
C133        C  0.59694336  0.53458619  0.20874578    -0.07100
N134        N  0.51199766  0.42886653  0.19608939    -0.25900
H135        H  0.60422932  0.44208629  0.17770308     0.06700
N136        N  0.59466974  0.41372203  0.26330028    -0.47100
H137        H  0.60094635  0.55332422  0.21627098     0.06700
C138        C  0.47171824  0.51977538  0.19522110     0.42400
C139        C  0.59872345  0.48887323  0.26432030    -0.06600
Co140      Co  0.54342941  0.51227845  0.22780927     0.73800
N141        N  0.59659089  0.50240429  0.18867676    -0.46800
C142        C  0.47158558  0.39563950  0.25591942     0.42700
N143        N  0.49121390  0.52991060  0.24792887    -0.46800
Co144      Co  0.54385828  0.46235150  0.19737803     0.73900
C145        C  0.49117598  0.42355341  0.18535080    -0.07100
C146        C  0.59571031  0.38131971  0.24333340    -0.06700
N147        N  0.51122918  0.48759077  0.25495400    -0.26200
N148        N  0.59853665  0.38892967  0.20408237    -0.47000
H149        H  0.48023446  0.36757110  0.23403195     0.06700
C150        C  0.48646252  0.53058036  0.20922813    -0.07100
Cl151      Cl  0.54343665  0.45820543  0.22564906    -0.50100
C152        C  0.61101545  0.52658609  0.19413530     0.42400
H153        H  0.48526543  0.47918125  0.27543013     0.06600
N154        N  0.48835663  0.49744785  0.18959385    -0.46800
N155        N  0.53812036  0.96501647  0.49302154    -0.36800
N156        N  0.50801227  0.93020520  0.46954101    -0.57400
N157        N  0.54012577  0.96294624  0.44553495    -0.36800
N158        N  0.57384910  0.99394819  0.46922963    -0.57400
C159        C  0.52538199  0.94364195  0.50177111     0.26800
C160        C  0.55999511  0.97729204  0.50159601     0.26800
C161        C  0.52771220  0.94083964  0.43712831     0.26800
C162        C  0.56265366  0.97429085  0.43702577     0.26800
C163        C  0.49152412  0.92260507  0.48198801     0.35400
C164        C  0.49248252  0.92164669  0.45694862     0.35400
C165        C  0.58191276  0.01030187  0.48162312     0.35400
C166        C  0.58333750  0.00891053  0.45664883     0.35400
C167        C  0.53927323  0.94240157  0.51604953    -0.22100
C168        C  0.56110702  0.96368208  0.51594648    -0.22100
C169        C  0.54235434  0.93829350  0.42309149    -0.22100
C170        C  0.56438563  0.95941136  0.42302620    -0.22100
C171        C  0.46551098  0.90897444  0.47730699    -0.23100
C172        C  0.46608576  0.90840100  0.46143241    -0.23100
C173        C  0.59675725  0.03567054  0.47692461    -0.23100
C174        C  0.59768337  0.03477772  0.46106973    -0.23100
C175        C  0.50049378  0.92641330  0.49751235    -0.18500
C176        C  0.57784384  0.00155572  0.49712520    -0.18500
C177        C  0.58085391  0.99852856  0.44129917    -0.18500
C178        C  0.50274075  0.92377836  0.44152420    -0.18500
H179        H  0.53411640  0.92777938  0.52559047     0.14400
H180        H  0.57602301  0.96866148  0.52539537     0.14400
H181        H  0.53767567  0.92281226  0.41383751     0.14400
H182        H  0.57992206  0.96334403  0.41372056     0.14400
H183        H  0.44801742  0.90025605  0.48456249     0.12700
H184        H  0.44907523  0.89912886  0.45404361     0.12700
H185        H  0.60617683  0.05286270  0.48416450     0.12700
H186        H  0.60790459  0.05118640  0.45365667     0.12700
H187        H  0.53113141  0.97210602  0.48230342     0.26000
H188        H  0.53264265  0.97079795  0.45601773     0.26000
N189        N  0.04141436  0.45521251  0.99235465    -0.36800
N190        N  0.07113493  0.49121615  0.96903124    -0.57400
N191        N  0.03832955  0.46028043  0.94480257    -0.36800
N192        N  0.00493994  0.42810791  0.96838085    -0.57400
C193        C  0.05485830  0.47574094  0.00134674     0.26800
C194        C  0.02000401  0.44237553  0.00099973     0.26800
C195        C  0.05108442  0.48227445  0.93648709     0.26800
C196        C  0.01607785  0.44883548  0.93615912     0.26800
C197        C  0.08772269  0.49836406  0.98149730     0.35400
C198        C  0.08617363  0.50102976  0.95654100     0.35400
C199        C  0.99684503  0.41122343  0.98056275     0.35400
C200        C  0.99515782  0.41384564  0.95562668     0.35400
C201        C  0.04210185  0.47569095  0.01593598    -0.22100
C202        C  0.02006558  0.45462789  0.01571197    -0.22100
C203        C  0.03699030  0.48457694  0.92229520    -0.22100
C204        C  0.01491064  0.46346831  0.92208743    -0.22100
C205        C  0.11325108  0.51303156  0.97695531    -0.23100
C206        C  0.11234177  0.51462822  0.96113061    -0.23100
C207        C  0.98165975  0.38626908  0.97556208    -0.23100
C208        C  0.98060158  0.38791167  0.95974665    -0.23100
C209        C  0.07921876  0.49352890  0.99697497    -0.18500
C210        C  0.00133608  0.41897516  0.99618305    -0.18500
C211        C  0.99763408  0.42473868  0.94037491    -0.18500
C212        C  0.07579542  0.49953483  0.94113149    -0.18500
H213        H  0.04808292  0.48936723  0.02574595     0.14400
H214        H  0.00576485  0.44894037  0.02530879     0.14400
H215        H  0.04208149  0.49986662  0.91303227     0.14400
H216        H  0.99974292  0.45935295  0.91263509     0.14400
H217        H  0.13061978  0.52180354  0.98428515     0.12700
H218        H  0.12899107  0.52481752  0.95385635     0.12700
H219        H  0.97220695  0.36879171  0.98257930     0.12700
H220        H  0.97019098  0.37188778  0.95215844     0.12700
H221        H  0.04758384  0.44916285  0.98127020     0.26000
H222        H  0.04536906  0.45250903  0.95541925     0.26000
N223        N  0.04288836  0.47057434  0.45743976    -0.36800
N224        N  0.07041066  0.43286773  0.48043774    -0.57400
N225        N  0.03910956  0.46552007  0.50492420    -0.36800
N226        N  0.00761988  0.49947964  0.48165606    -0.57400
C227        C  0.05499926  0.44935680  0.44832912     0.26800
C228        C  0.02190779  0.48446497  0.44898309     0.26800
C229        C  0.05051203  0.44263297  0.51303245     0.26800
C230        C  0.01737577  0.47769449  0.51364334     0.26800
C231        C  0.08669409  0.42488470  0.46798078     0.35400
C232        C  0.08481712  0.42239374  0.49297292     0.35400
C233        C  0.00038516  0.51677103  0.46949880     0.35400
C234        C  0.99831097  0.51396294  0.49444998     0.35400
C235        C  0.04166600  0.44993882  0.43389628    -0.22100
C236        C  0.02081748  0.47207175  0.43430402    -0.22100
C237        C  0.03607139  0.44043401  0.52715126    -0.22100
C238        C  0.01517687  0.46255947  0.52753479    -0.22100
C239        C  0.11144328  0.40911444  0.47261356    -0.23100
C240        C  0.11024648  0.40750965  0.48844877    -0.23100
C241        C  0.98623961  0.54224645  0.47456581    -0.23100
C242        C  0.98490914  0.54045975  0.49039066    -0.23100
C243        C  0.07857020  0.43026259  0.45245566    -0.18500
C244        C  0.00466025  0.50894647  0.45385110    -0.18500
C245        C  0.00022909  0.50277303  0.50966386    -0.18500
C246        C  0.07442888  0.42445453  0.50836393    -0.18500
H247        H  0.04640705  0.43583911  0.42407191     0.14400
H248        H  0.00645912  0.47830884  0.42483819     0.14400
H249        H  0.04015118  0.42452512  0.53625815     0.14400
H250        H  0.00007147  0.46697221  0.53697665     0.14400
H251        H  0.12851697  0.39964332  0.46535554     0.12700
H252        H  0.12621604  0.39650851  0.49578562     0.12700
H253        H  0.97759889  0.56014755  0.46758523     0.12700
H254        H  0.97508848  0.55674208  0.49802264     0.12700
H255        H  0.04967538  0.47644736  0.46850545     0.26000
H256        H  0.04684516  0.47329611  0.49437275     0.26000
N257        N  0.54140226  0.95278421  0.95746829    -0.36800
N258        N  0.51230123  0.98739495  0.98122827    -0.57400
N259        N  0.54391045  0.95326919  0.00471788    -0.36800
N260        N  0.57648464  0.92208079  0.98076240    -0.57400
C261        C  0.52929009  0.97479524  0.94897715     0.26800
C262        C  0.56275341  0.94020048  0.94872706     0.26800
C263        C  0.53251755  0.97575357  0.01317996     0.26800
C264        C  0.56666628  0.94174368  0.01291441     0.26800
C265        C  0.49586157  0.99560526  0.96892022     0.35400
C266        C  0.49698279  0.99567457  0.99390577     0.35400
C267        C  0.58354977  0.90568297  0.96823277     0.35400
C268        C  0.58547861  0.90648571  0.99321022     0.35400
C269        C  0.54308025  0.97621805  0.93467652    -0.22100
C270        C  0.56425408  0.95436674  0.93452027    -0.22100
C271        C  0.54808976  0.97848100  0.02692133    -0.22100
C272        C  0.56970150  0.95705886  0.02673748    -0.22100
C273        C  0.47010873  0.00943274  0.97375946    -0.23100
C274        C  0.47077504  0.00941512  0.98964101    -0.23100
C275        C  0.59728336  0.87961420  0.97269841    -0.23100
C276        C  0.59850451  0.88011503  0.98856989    -0.23100
C277        C  0.50479168  0.99221976  0.95341518    -0.18500
C278        C  0.57947620  0.91499497  0.95283421    -0.18500
C279        C  0.58377250  0.91683535  0.00859370    -0.18500
C280        C  0.50747349  0.99285157  0.00919485    -0.18500
H281        H  0.53818063  0.99124460  0.92527701     0.14400
H282        H  0.57888637  0.94927512  0.92496845     0.14400
H283        H  0.54426155  0.99427620  0.03613593     0.14400
H284        H  0.58577578  0.95316566  0.03578531     0.14400
H285        H  0.45279754  0.01871022  0.96660221     0.12700
H286        H  0.45403921  0.01870307  0.99717491     0.12700
H287        H  0.60577150  0.86222437  0.96529712     0.12700
H288        H  0.60805394  0.86312825  0.99584084     0.12700
H289        H  0.53411443  0.94533454  0.96816434     0.26000
H290        H  0.53542292  0.94512497  0.99439036     0.26000
C291        C  0.72428426  0.81199794  0.81068013     0.80000
N292        N  0.71277623  0.82238346  0.82413844    -0.78300
C293        C  0.68772221  0.81028815  0.83017875     0.82500
N294        N  0.67432527  0.78740972  0.82267159    -0.78200
C295        C  0.68556954  0.77685564  0.80918886     0.82600
N296        N  0.71051498  0.78927576  0.80329300    -0.79900
C297        C  0.80346075  0.26543012  0.83038109     0.80000
N298        N  0.81894524  0.28202224  0.84074584    -0.78300
C299        C  0.84675119  0.27395235  0.84510626     0.82500
N300        N  0.85900899  0.24905941  0.83894621    -0.78200
C301        C  0.84371908  0.23223601  0.82862289     0.82600
N302        N  0.81605763  0.24065251  0.82441359    -0.79900
C303        C  0.38833034  0.10703898  0.83487571     0.80000
N304        N  0.36438298  0.09430824  0.82793547    -0.78300
C305        C  0.35262417  0.10632507  0.81492170     0.82500
N306        N  0.36497130  0.13116089  0.80893321    -0.78200
C307        C  0.38870575  0.14423673  0.81565514     0.82600
N308        N  0.40030754  0.13213191  0.82869482    -0.79900
C309        C  0.23596214  0.69648988  0.83338252     0.80000
N310        N  0.21974420  0.67999656  0.84343526    -0.78300
C311        C  0.23032628  0.65392914  0.84902639     0.82500
N312        N  0.25745998  0.64433145  0.84438303    -0.78200
C313        C  0.27396183  0.66060534  0.83432727     0.82600
N314        N  0.26299225  0.68658568  0.82888563    -0.79900
C315        C  0.21663041  0.27321373  0.60594766     0.80000
N316        N  0.20920391  0.24513843  0.61016870    -0.78300
C317        C  0.22629025  0.22979806  0.62029312     0.82500
N318        N  0.25084783  0.24285107  0.62624974    -0.78200
C319        C  0.25854066  0.27088719  0.62222375     0.82600
N320        N  0.24132205  0.28596502  0.61205718    -0.79900
C321        C  0.70357607  0.12511250  0.61052871     0.80000
N322        N  0.72807610  0.11289070  0.61702595    -0.78300
C323        C  0.73976494  0.12438596  0.63019833     0.82500
N324        N  0.72668980  0.14823367  0.63685903    -0.78200
C325        C  0.70225988  0.16072551  0.63052544     0.82600
N326        N  0.69080877  0.14906679  0.61733884    -0.79900
C327        C  0.47544341  0.53002642  0.76346143     0.42300
N328        N  0.48503095  0.49413373  0.74796175     0.01200
C329        C  0.60846982  0.40338790  0.74696614    -0.06700
H330        H  0.62618757  0.51961613  0.73450690     0.06700
C331        C  0.56983344  0.50672617  0.68760505    -0.07100
Co332      Co  0.53933196  0.46098211  0.75712742     0.74200
N333        N  0.59143102  0.49052941  0.74254665    -0.26200
Co334      Co  0.58846763  0.45608547  0.72641549     0.74100
C335        C  0.59872387  0.51929248  0.69167616     0.42400
N336        N  0.49902235  0.49027322  0.70197403     0.00800
N337        N  0.58660448  0.48648057  0.70846418     0.00900
N338        N  0.57679010  0.40781107  0.76709919    -0.47100
H339        H  0.51736491  0.52054782  0.77789205     0.06600
N340        N  0.57263054  0.49228448  0.75420497     0.01200
N341        N  0.58315945  0.42198701  0.71023509     0.00900
C342        C  0.58841732  0.38307548  0.69630951     0.42500
N343        N  0.48035700  0.49264556  0.71366658    -0.25700
C344        C  0.50286179  0.40710563  0.76874189    -0.06600
N345        N  0.46534325  0.51500377  0.75102814    -0.46800
N346        N  0.60073906  0.39888875  0.70794915    -0.47000
C347        C  0.47582881  0.39190485  0.76395486     0.42300
N348        N  0.57118536  0.42765226  0.75621401     0.01200
N349        N  0.47648438  0.42798052  0.71483993    -0.25700
N350        N  0.50731428  0.49409228  0.75779245    -0.26200
N351        N  0.49519794  0.42599487  0.70320249     0.00800
H352        H  0.43544019  0.40591240  0.72009836     0.06700
H353        H  0.54635577  0.39337548  0.68224880     0.06700
N354        N  0.58959615  0.42573120  0.74442909    -0.26300
N355        N  0.56429062  0.48657403  0.69865132    -0.25900
N356        N  0.48319022  0.42927830  0.74909149     0.01200
C357        C  0.59892007  0.53168147  0.75616972     0.42600
C358        C  0.46408495  0.51727278  0.71161689    -0.07100
N359        N  0.56042661  0.42230310  0.70064364    -0.25900
H360        H  0.55602446  0.51088900  0.67763538     0.06700
N361        N  0.57622055  0.51658513  0.76255683    -0.51100
H362        H  0.44702136  0.52525978  0.71933550     0.06700
C363        C  0.46177073  0.39351606  0.69814126     0.42400
C364        C  0.50333659  0.51610126  0.76802727    -0.06600
Co365      Co  0.48052344  0.46102241  0.73144067     0.73800
N366        N  0.49645069  0.51195582  0.69182545    -0.46800
C367        C  0.59983363  0.39145228  0.76199037     0.42700
N368        N  0.46484926  0.40680330  0.75166349    -0.46800
Co369      Co  0.52964481  0.45624415  0.70081724     0.73900
C370        C  0.56178285  0.39857422  0.69142260    -0.07100
C371        C  0.60919684  0.51442960  0.74289028    -0.06700
N372        N  0.50568437  0.42968581  0.75884826    -0.26200
N373        N  0.60773969  0.50544340  0.70465095    -0.47000
H374        H  0.62675158  0.39731783  0.73953744     0.06700
C375        C  0.45471734  0.40816469  0.71277394    -0.07100
Cl376      Cl  0.53447893  0.45856258  0.72895274    -0.50100
C377        C  0.47489855  0.52992641  0.69706538     0.42400
H378        H  0.51835666  0.40168987  0.77782578     0.06600
N379        N  0.48704359  0.40594372  0.69285592    -0.46800
C380        C  0.83942652  0.68861133  0.62254440     0.80000
N381        N  0.81261369  0.67781010  0.62702719    -0.78300
C382        C  0.80236292  0.65154039  0.62140893     0.82500
N383        N  0.81926688  0.63605445  0.61122865    -0.78200
C384        C  0.84607372  0.64650854  0.60659676     0.82600
N385        N  0.85602265  0.67276148  0.61235151    -0.79900
C386        C  0.38776989  0.80583156  0.61609376     0.80000
N387        N  0.36434435  0.81827879  0.62358439    -0.78300
C388        C  0.35396817  0.80646522  0.63699320     0.82500
N389        N  0.36719113  0.78192124  0.64281549    -0.78200
C390        C  0.39046361  0.76906370  0.63549450     0.82600
N391        N  0.40067567  0.78113654  0.62211196    -0.79900
C392        C  0.96850210  0.90511295  0.75808093     0.42300
N393        N  0.00665068  0.91111195  0.74371139     0.01200
C394        C  0.09821014  0.03328420  0.73991592    -0.06700
H395        H  0.98500640  0.05723010  0.73312397     0.06700
C396        C  0.98679302  0.99024930  0.68467121    -0.07100
Co397      Co  0.04030632  0.96569239  0.75236116     0.74200
N398        N  0.00952059  0.01762459  0.73847488    -0.26200
Co399      Co  0.04162093  0.01420873  0.72130278     0.74100
C400        C  0.97214105  0.01770549  0.68918898     0.42400
N401        N  0.00868630  0.92196898  0.69768215     0.00800
N402        N  0.00910933  0.01033083  0.70420696     0.00900
N403        N  0.09564956  0.00118145  0.75996759    -0.47100
H404        H  0.97889616  0.94721028  0.77218373     0.06600
N405        N  0.00900126  0.99925407  0.75031356     0.01200
N406        N  0.07372105  0.01011018  0.70419871     0.00900
C407        C  0.10813127  0.02020701  0.68792021     0.42500
N408        N  0.00815382  0.90384743  0.70961299    -0.25700
C409        C  0.09192865  0.92678042  0.76509382    -0.06600
N410        N  0.98352075  0.89350522  0.74599845    -0.46800
N411        N  0.09392109  0.03023805  0.70061594    -0.47000
C412        C  0.10464449  0.89797004  0.76103241     0.42300
N413        N  0.07333580  0.99743554  0.75029606     0.01200
N414        N  0.07311371  0.90369449  0.71015130    -0.25700
N415        N  0.00731595  0.93369142  0.75344231    -0.26200
N416        N  0.07350895  0.92223025  0.69835203     0.00800
H417        H  0.10306817  0.86915060  0.71742359     0.06700
H418        H  0.09849268  0.97768506  0.67390444     0.06700
N419        N  0.07418193  0.01588939  0.73846565    -0.26300
N420        N  0.00926949  0.98753920  0.69460831    -0.25900
N421        N  0.07134350  0.90941953  0.74439705     0.01200
C422        C  0.97508798  0.03104164  0.75543466     0.42600
C423        C  0.98613856  0.88424768  0.70767811    -0.07100
N424        N  0.07343429  0.98757485  0.69448028    -0.25900
H425        H  0.98163511  0.97485114  0.67546810     0.06700
N426        N  0.98903534  0.00670928  0.76082759    -0.47100
H427        H  0.98116298  0.86597912  0.71534002     0.06700
C428        C  0.11273975  0.89614362  0.69532626     0.42400
C429        C  0.98422164  0.93167523  0.76306898    -0.06600
Co430      Co  0.03978644  0.90630103  0.72698199     0.73800
N431        N  0.98821909  0.91539022  0.68723591    -0.46800
C432        C  0.11231247  0.02339705  0.75423491     0.42700
N433        N  0.09058605  0.88858306  0.74815972    -0.46800
Co434      Co  0.04122770  0.95467759  0.69594867     0.73900
C435        C  0.09447910  0.99187585  0.68376511    -0.07100
C436        C  0.98872015  0.03839692  0.74059317    -0.06700
N437        N  0.07149319  0.93190100  0.75415103    -0.26200
N438        N  0.98714864  0.02899826  0.70137792    -0.47000
H439        H  0.10491502  0.05044988  0.73192550     0.06700
C440        C  0.09703278  0.88610382  0.70918912    -0.07100
Cl441      Cl  0.04073509  0.96023000  0.72415130    -0.50100
C442        C  0.97287083  0.89199009  0.69284272     0.42400
H443        H  0.09602785  0.94070020  0.77505562     0.06600
N444        N  0.09682561  0.91858943  0.68928470    -0.46800
C445        C  0.32781281  0.81934317  0.64495664    -0.03500
C446        C  0.31232633  0.84339336  0.63850942    -0.09300
C447        C  0.28664191  0.85421485  0.64560513    -0.17000
C448        C  0.27612186  0.84125338  0.65925015     0.25200
C449        C  0.29175946  0.81782039  0.66595506    -0.18600
C450        C  0.31740944  0.80695422  0.65889265    -0.07500
C451        C  0.24877289  0.85128575  0.66608060    -0.14000
C452        C  0.22542978  0.85914605  0.67151242    -0.13700
C453        C  0.19721042  0.86842363  0.67763242     0.25100
C454        C  0.18325601  0.85192417  0.68926634    -0.19100
C455        C  0.15573178  0.86086664  0.69509439    -0.07600
C456        C  0.14178307  0.88635375  0.68927758    -0.03700
C457        C  0.15593048  0.90274551  0.67757234    -0.09000
C458        C  0.18347161  0.89386132  0.67182138    -0.16600
H459        H  0.31971246  0.85352485  0.62784024     0.11500
H460        H  0.27473775  0.87240147  0.64031594     0.10800
H461        H  0.28388128  0.80763522  0.67652564     0.10700
H462        H  0.32879932  0.78853285  0.66425124     0.11300
H463        H  0.19362678  0.83213059  0.69381734     0.11300
H464        H  0.14534707  0.84773533  0.70405302     0.11300
H465        H  0.14578432  0.92255033  0.67290778     0.11400
H466        H  0.19402066  0.90680897  0.66281986     0.10300
C467        C  0.95149074  0.87400941  0.68389775    -0.03500
C468        C  0.94955745  0.87700752  0.66775719    -0.09300
C469        C  0.93184753  0.85759338  0.65911379    -0.17000
C470        C  0.91561543  0.83525203  0.66653091     0.25200
C471        C  0.91649073  0.83297401  0.68265734    -0.18600
C472        C  0.93431649  0.85220739  0.69129492    -0.07500
C473        C  0.89956836  0.81346905  0.65763539    -0.14000
C474        C  0.88747263  0.79365976  0.65066072    -0.13700
C475        C  0.87454652  0.76845801  0.64290055     0.25100
C476        C  0.84616000  0.75855637  0.64690710    -0.19100
C477        C  0.83445411  0.73290806  0.64009447    -0.07600
C478        C  0.85105628  0.71673004  0.62918410    -0.03700
C479        C  0.87936208  0.72723695  0.62503371    -0.09000
C480        C  0.89099419  0.75286351  0.63186122    -0.16600
H481        H  0.96258103  0.89359442  0.66176725     0.11500
H482        H  0.93141157  0.85952779  0.64663558     0.10800
H483        H  0.90399109  0.81582011  0.68853051     0.10700
H484        H  0.93508141  0.84960879  0.70372459     0.11300
H485        H  0.83325699  0.77038431  0.65548078     0.11300
H486        H  0.81259952  0.72553884  0.64355891     0.11300
H487        H  0.89278081  0.71542881  0.61668409     0.11400
H488        H  0.91303792  0.76024073  0.62870687     0.10300
C489        C  0.40376846  0.74170281  0.64196243    -0.03500
C490        C  0.39535322  0.73182285  0.65675993    -0.09300
C491        C  0.40670626  0.70550755  0.66276998    -0.17000
C492        C  0.42661052  0.68855333  0.65412923     0.25200
C493        C  0.43546701  0.69823929  0.63945407    -0.18600
C494        C  0.42417514  0.72472721  0.63340421    -0.07500
C495        C  0.43725692  0.66102640  0.66039821    -0.14000
C496        C  0.44451835  0.63813577  0.66648412    -0.13700
C497        C  0.45198817  0.61093763  0.67422220     0.25100
C498        C  0.46781223  0.58895368  0.66638305    -0.19100
C499        C  0.47501832  0.56253205  0.67387269    -0.07600
C500        C  0.46627030  0.55765659  0.68926955    -0.03700
C501        C  0.45022260  0.57972457  0.69706573    -0.09000
C502        C  0.44321188  0.60629731  0.68957537    -0.16600
H503        H  0.37981899  0.74433043  0.66371530     0.11500
H504        H  0.39972961  0.69824021  0.67414006     0.10800
H505        H  0.45086250  0.68523283  0.63265344     0.10700
H506        H  0.43104819  0.73164141  0.62196964     0.11300
H507        H  0.47463391  0.59225166  0.65449914     0.11300
H508        H  0.48739301  0.54585873  0.66759108     0.11300
H509        H  0.44348611  0.57665618  0.70896674     0.11400
H510        H  0.43097847  0.62322693  0.69575263     0.10300
C511        C  0.77381743  0.63907114  0.62693840    -0.03500
C512        C  0.75471303  0.65603701  0.63627263    -0.09300
C513        C  0.72888171  0.64347873  0.64238291    -0.17000
C514        C  0.72178518  0.61384235  0.63926582     0.25200
C515        C  0.74020006  0.59702507  0.62965758    -0.18600
C516        C  0.76596601  0.60954963  0.62348203    -0.07500
C517        C  0.69688279  0.60008151  0.64682027    -0.14000
C518        C  0.67767319  0.58774381  0.65408077    -0.13700
C519        C  0.65701827  0.57194874  0.66373656     0.25100
C520        C  0.62770282  0.56732914  0.65898673    -0.19100
C521        C  0.60827923  0.55078901  0.66822973    -0.07600
C522        C  0.61806486  0.53870002  0.68230272    -0.03700
C523        C  0.64732366  0.54410311  0.68712532    -0.09000
C524        C  0.66665509  0.56051981  0.67788311    -0.16600
H525        H  0.75996406  0.67885272  0.63908954     0.11500
H526        H  0.71482322  0.65668048  0.64984250     0.10800
H527        H  0.73501985  0.57401163  0.62723179     0.10700
H528        H  0.78012528  0.59581802  0.61635586     0.11300
H529        H  0.61998938  0.57615278  0.64806920     0.11300
H530        H  0.58584470  0.54714010  0.66424722     0.11300
H531        H  0.65550071  0.53513514  0.69791379     0.11400
H532        H  0.68927326  0.56397028  0.68168628     0.10300
C533        C  0.60108955  0.35626897  0.68922893    -0.03500
C534        C  0.58353157  0.33825039  0.67961360    -0.09300
C535        C  0.59576646  0.31359879  0.67227222    -0.17000
C536        C  0.62565978  0.30677101  0.67441876     0.25200
C537        C  0.64323057  0.32435021  0.68413351    -0.18600
C538        C  0.63096230  0.34895519  0.69157941    -0.07500
C539        C  0.63829368  0.28183587  0.66654588    -0.14000
C540        C  0.64892535  0.26091205  0.65996656    -0.13700
C541        C  0.66216552  0.23585904  0.65247863     0.25100
C542        C  0.68625784  0.22172470  0.65938903    -0.19100
C543        C  0.69929478  0.19730561  0.65222496    -0.07600
C544        C  0.68833740  0.18666656  0.63802575    -0.03700
C545        C  0.66404973  0.20105512  0.63115753    -0.09000
C546        C  0.65105974  0.22555138  0.63835982    -0.16600
H547        H  0.56035392  0.34315637  0.67774024     0.11500
H548        H  0.58197946  0.30000213  0.66483928     0.10800
H549        H  0.66641995  0.31916513  0.68585663     0.10700
H550        H  0.64492605  0.36256192  0.69890394     0.11300
H551        H  0.69496644  0.22957427  0.67032941     0.11300
H552        H  0.71790953  0.18675551  0.65785629     0.11300
H553        H  0.65511166  0.19346002  0.62023086     0.11400
H554        H  0.63238449  0.23642202  0.63293398     0.10300
C555        C  0.76661603  0.11139568  0.63721168    -0.03500
C556        C  0.78198369  0.08830884  0.62977596    -0.09300
C557        C  0.80780079  0.07674128  0.63629201    -0.17000
C558        C  0.81846148  0.08805275  0.65029543     0.25200
C559        C  0.80317746  0.11073116  0.65786181    -0.18600
C560        C  0.77742592  0.12235862  0.65137802    -0.07500
C561        C  0.84523063  0.07662640  0.65687933    -0.14000
C562        C  0.86767455  0.06717551  0.66247279    -0.13700
C563        C  0.89426620  0.05529886  0.66903625     0.25100
C564        C  0.90703289  0.06852639  0.68208264    -0.19100
C565        C  0.93261906  0.05643875  0.68861146    -0.07600
C566        C  0.94557076  0.03097320  0.68214234    -0.03700
C567        C  0.93269443  0.01804352  0.66895006    -0.09000
C568        C  0.90719447  0.03016041  0.66244808    -0.16600
H569        H  0.77426089  0.07936883  0.61887232     0.11500
H570        H  0.81952689  0.05912203  0.63037414     0.10800
H571        H  0.81126084  0.11955027  0.66873246     0.10700
H572        H  0.76610095  0.14002507  0.65745094     0.11300
H573        H  0.89712596  0.08803262  0.68724905     0.11300
H574        H  0.94209777  0.06682847  0.69876795     0.11300
H575        H  0.94215932  0.99852810  0.66362991     0.11400
H576        H  0.89746586  0.01981969  0.65233230     0.10300
C577        C  0.12878777  0.03840376  0.67868592    -0.03500
C578        C  0.13749083  0.06642025  0.68419053    -0.09300
C579        C  0.15493533  0.08502750  0.67508442    -0.17000
C580        C  0.16399221  0.07590409  0.66037772     0.25200
C581        C  0.15612265  0.04773464  0.65491586    -0.18600
C582        C  0.13864543  0.02898967  0.66405147    -0.07500
C583        C  0.17958403  0.09654235  0.65070041    -0.14000
C584        C  0.19038711  0.11678327  0.64359193    -0.13700
C585        C  0.20054238  0.14365837  0.63643787     0.25100
C586        C  0.22903632  0.15438788  0.63947676    -0.19100
C587        C  0.23766288  0.18216868  0.63392278    -0.07600
C588        C  0.21783416  0.19956954  0.62525934    -0.03700
C589        C  0.18950138  0.18822534  0.62193600    -0.09000
C590        C  0.18090338  0.16048772  0.62755298    -0.16600
H591        H  0.13026616  0.07426074  0.69541070     0.11500
H592        H  0.16078937  0.10685319  0.67938031     0.10800
H593        H  0.16291710  0.04054333  0.64350185     0.10700
H594        H  0.13230810  0.00754630  0.65949168     0.11300
H595        H  0.24431257  0.14163146  0.64645701     0.11300
H596        H  0.25968705  0.19019099  0.63663104     0.11300
H597        H  0.17367719  0.20109193  0.61536979     0.11400
H598        H  0.15866487  0.15249651  0.62529672     0.10300
C599        C  0.44151854  0.37581264  0.68840366    -0.03500
C600        C  0.45036390  0.36666919  0.67355032    -0.09300
C601        C  0.43013800  0.35288941  0.66361388    -0.17000
C602        C  0.40094682  0.34810637  0.66845283     0.25200
C603        C  0.39227013  0.35624976  0.68337826    -0.18600
C604        C  0.41242680  0.36993226  0.69332529    -0.07500
C605        C  0.37949593  0.33535470  0.65815493    -0.14000
C606        C  0.35988217  0.32469749  0.65053355    -0.13700
C607        C  0.33517844  0.31112289  0.64283198     0.25100
C608        C  0.31817334  0.32719168  0.63223737    -0.19100
C609        C  0.29328091  0.31412493  0.62539242    -0.07600
C610        C  0.28514539  0.28483735  0.62912407    -0.03700
C611        C  0.30254390  0.26892918  0.63975078    -0.09000
C612        C  0.32734054  0.28201217  0.64654508    -0.16600
H613        H  0.47267714  0.37082929  0.66948090     0.11500
H614        H  0.43709727  0.34648101  0.65210026     0.10800
H615        H  0.36973714  0.35248435  0.68724174     0.10700
H616        H  0.40488921  0.37656994  0.70467728     0.11300
H617        H  0.32397389  0.34986100  0.62938943     0.11300
H618        H  0.28033903  0.32700984  0.61729567     0.11300
H619        H  0.29693854  0.24639299  0.64293387     0.11400
H620        H  0.34024623  0.26949464  0.65482914     0.10300
C621        C  0.45728995  0.55116908  0.77241810    -0.03500
C622        C  0.42839466  0.55782872  0.76748574    -0.09300
C623        C  0.40986408  0.57533749  0.77661252    -0.17000
C624        C  0.41998004  0.58656012  0.79073907     0.25200
C625        C  0.44905842  0.58094002  0.79550962    -0.18600
C626        C  0.46767713  0.56335899  0.78637943    -0.07500
C627        C  0.39980161  0.60248096  0.80055417    -0.14000
C628        C  0.38069115  0.61429497  0.80807024    -0.13700
C629        C  0.35562470  0.62699492  0.81588942     0.25100
C630        C  0.34605245  0.65548513  0.81200506    -0.19100
C631        C  0.31992459  0.66672863  0.81834925    -0.07600
C632        C  0.30290669  0.64954552  0.82865330    -0.03700
C633        C  0.31321820  0.62124490  0.83285437    -0.09000
C634        C  0.33937917  0.61003905  0.82646901    -0.16600
H635        H  0.41979532  0.54883014  0.75677260     0.11500
H636        H  0.38739378  0.57955851  0.77281260     0.10800
H637        H  0.45710997  0.58957503  0.80642246     0.10700
H638        H  0.48986441  0.55878852  0.79044179     0.11300
H639        H  0.35837832  0.66873007  0.80376480     0.11300
H640        H  0.31275578  0.68863655  0.81489347     0.11300
H641        H  0.30071918  0.60743569  0.84075098     0.11400
H642        H  0.34652245  0.58786326  0.82948009     0.10300
C643        C  0.12426471  0.87888975  0.77038463    -0.03500
C644        C  0.13469484  0.88805277  0.78495254    -0.09300
C645        C  0.15152539  0.86874846  0.79407394    -0.17000
C646        C  0.15812851  0.84020216  0.78869807     0.25200
C647        C  0.14830593  0.83120693  0.77409831    -0.18600
C648        C  0.13154186  0.85039552  0.76499478    -0.07500
C649        C  0.17404492  0.81952368  0.79822095    -0.14000
C650        C  0.18624588  0.80027736  0.80546339    -0.13700
C651        C  0.19957538  0.77548352  0.81323986     0.25100
C652        C  0.22771001  0.76564354  0.80884042    -0.19100
C653        C  0.23980628  0.74028303  0.81560804    -0.07600
C654        C  0.22382621  0.72430936  0.82684634    -0.03700
C655        C  0.19574939  0.73470663  0.83137771    -0.09000
C656        C  0.18372455  0.76010181  0.82459717    -0.16600
H657        H  0.12946740  0.90984174  0.78942335     0.11500
H658        H  0.15900390  0.87591509  0.80537778     0.10800
H659        H  0.15324551  0.80915825  0.76983153     0.10700
H660        H  0.12384922  0.84270400  0.75382841     0.11300
H661        H  0.24009454  0.77728018  0.79998857     0.11300
H662        H  0.26145358  0.73294334  0.81182638     0.11300
H663        H  0.18284732  0.72300778  0.83999081     0.11400
H664        H  0.16184507  0.76744390  0.82802477     0.10300
C665        C  0.40053685  0.17212488  0.80903885    -0.03500
C666        C  0.39024488  0.18213784  0.79458491    -0.09300
C667        C  0.39957819  0.20935585  0.78865992    -0.17000
C668        C  0.41932457  0.22700079  0.79705564     0.25200
C669        C  0.43022596  0.21703240  0.81128542    -0.18600
C670        C  0.42095536  0.18969781  0.81724519    -0.07500
C671        C  0.42789753  0.25555635  0.79116447    -0.14000
C672        C  0.43495976  0.27958337  0.78630923    -0.13700
C673        C  0.44431088  0.30824456  0.78089086     0.25100
C674        C  0.46671504  0.32344645  0.78876540    -0.19100
C675        C  0.47660813  0.35090399  0.78339028    -0.07600
C676        C  0.46419725  0.36356090  0.77003198    -0.03700
C677        C  0.44132373  0.34839553  0.76231035    -0.09000
C678        C  0.43147312  0.32082482  0.76770615    -0.16600
H679        H  0.37465589  0.16912317  0.78789126     0.11500
H680        H  0.39109438  0.21680022  0.77761369     0.10800
H681        H  0.44558522  0.23055535  0.81786161     0.10700
H682        H  0.42924892  0.18266805  0.82839327     0.11300
H683        H  0.47672796  0.31395365  0.79900448     0.11300
H684        H  0.49408664  0.36204820  0.78968676     0.11300
H685        H  0.43140533  0.35760528  0.75198597     0.11400
H686        H  0.41407434  0.30922491  0.76153000     0.10300
C687        C  0.14059423  0.03291276  0.76113330    -0.03500
C688        C  0.16055434  0.05100198  0.75297715    -0.09300
C689        C  0.18799730  0.05831077  0.75947814    -0.17000
C690        C  0.19555546  0.04770584  0.77416879     0.25200
C691        C  0.17556766  0.03014262  0.78242479    -0.18600
C692        C  0.14827769  0.02273579  0.77594559    -0.07500
C693        C  0.22369903  0.05489187  0.78090224    -0.14000
C694        C  0.24690123  0.06150005  0.78681722    -0.13700
C695        C  0.27407987  0.07154338  0.79364175     0.25100
C696        C  0.28612581  0.05713496  0.80651511    -0.19100
C697        C  0.31198657  0.06807693  0.81342442    -0.07600
C698        C  0.32595957  0.09355775  0.80748820    -0.03700
C699        C  0.31374015  0.10753244  0.79441642    -0.09000
C700        C  0.28801390  0.09660825  0.78758390    -0.16600
H701        H  0.15524119  0.05902836  0.74152697     0.11500
H702        H  0.20335943  0.07203383  0.75303167     0.10800
H703        H  0.18115605  0.02200268  0.79383462     0.10700
H704        H  0.13324915  0.00885921  0.78250678     0.11300
H705        H  0.27538032  0.03769908  0.81129661     0.11300
H706        H  0.32081411  0.05681847  0.82345828     0.11300
H707        H  0.32381657  0.12719308  0.78951198     0.11400
H708        H  0.27879559  0.10794194  0.77765425     0.10300
C709        C  0.95517079  0.04987792  0.76475912    -0.03500
C710        C  0.95151267  0.04444555  0.78065439    -0.09300
C711        C  0.93509123  0.06399427  0.78982281    -0.17000
C712        C  0.92195724  0.08899134  0.78317277     0.25200
C713        C  0.92456530  0.09391761  0.76726419    -0.18600
C714        C  0.94107530  0.07449481  0.75809847    -0.07500
C715        C  0.90715022  0.11051730  0.79268929    -0.14000
C716        C  0.89565023  0.13008146  0.80003157    -0.13700
C717        C  0.88234813  0.15482869  0.80787594     0.25100
C718        C  0.89925116  0.17255560  0.81783994    -0.19100
C719        C  0.88668239  0.19760244  0.82476893    -0.07600
C720        C  0.85703586  0.20525717  0.82174942    -0.03700
C721        C  0.84019431  0.18705639  0.81182990    -0.09000
C722        C  0.85278495  0.16205017  0.80495705    -0.16600
H723        H  0.96211254  0.02563470  0.78609091     0.11500
H724        H  0.93321519  0.05998552  0.80212935     0.10800
H725        H  0.91440480  0.11316639  0.76199957     0.10700
H726        H  0.94322002  0.07908982  0.74587573     0.11300
H727        H  0.92223794  0.16723235  0.82009939     0.11300
H728        H  0.90028145  0.21113212  0.83231135     0.11300
H729        H  0.81730472  0.19220659  0.80925915     0.11400
H730        H  0.83955284  0.14855714  0.79720632     0.10300
C731        C  0.77362325  0.27463051  0.82509428    -0.03500
C732        C  0.75879246  0.25820188  0.81358126    -0.09300
C733        C  0.73159221  0.26776990  0.80777452    -0.17000
C734        C  0.71870647  0.29377555  0.81341903     0.25200
C735        C  0.73280340  0.30985324  0.82516982    -0.18600
C736        C  0.76008417  0.30034608  0.83100008    -0.07500
C737        C  0.69248112  0.30531266  0.80618659    -0.14000
C738        C  0.67254005  0.31664058  0.79908661    -0.13700
C739        C  0.65167985  0.33252508  0.78967794     0.25100
C740        C  0.62947187  0.34968469  0.79655158    -0.19100
C741        C  0.61166352  0.36802563  0.78743573    -0.07600
C742        C  0.61617583  0.36961913  0.77137619    -0.03700
C743        C  0.63773635  0.35143748  0.76451040    -0.09000
C744        C  0.65535710  0.33298573  0.77361817    -0.16600
H745        H  0.76848327  0.23828246  0.80876522     0.11500
H746        H  0.72098990  0.25528300  0.79859800     0.10800
H747        H  0.72308622  0.33014883  0.82954502     0.10700
H748        H  0.77081560  0.31346199  0.83987969     0.11300
H749        H  0.62654804  0.34960712  0.80898160     0.11300
H750        H  0.59518918  0.38180059  0.79301456     0.11300
H751        H  0.64145510  0.35192487  0.75215409     0.11400
H752        H  0.67250614  0.31981153  0.76818303     0.10300
C753        C  0.60783049  0.56180989  0.76094695    -0.03500
C754        C  0.63251254  0.57592280  0.75429717    -0.09300
C755        C  0.64049863  0.60456963  0.75895138    -0.17000
C756        C  0.62380724  0.61935714  0.77021143     0.25200
C757        C  0.59913105  0.60550219  0.77679234    -0.18600
C758        C  0.59119427  0.57690033  0.77221199    -0.07500
C759        C  0.63235723  0.64838500  0.77541491    -0.14000
C760        C  0.63964041  0.67216363  0.78049959    -0.13700
C761        C  0.64929837  0.69965507  0.78722495     0.25100
C762        C  0.63982566  0.70765938  0.80205664    -0.19100
C763        C  0.65091820  0.73331292  0.80907452    -0.07600
C764        C  0.67181712  0.75112042  0.80135083    -0.03700
C765        C  0.68057778  0.74326262  0.78627829    -0.09000
C766        C  0.66935477  0.71769824  0.77927042    -0.16600
H767        H  0.64574293  0.56483033  0.74561542     0.11500
H768        H  0.65973794  0.61510286  0.75384327     0.10800
H769        H  0.58611720  0.61674438  0.78553652     0.10700
H770        H  0.57196771  0.56663812  0.77747039     0.11300
H771        H  0.62433834  0.69375697  0.80831720     0.11300
H772        H  0.64377516  0.73870463  0.82069129     0.11300
H773        H  0.69646047  0.75660702  0.77997291     0.11400
H774        H  0.67679049  0.71168612  0.76777821     0.10300
C775        C  0.94027250  0.89380884  0.76422598    -0.03500
C776        C  0.93183569  0.90048715  0.77946561    -0.09300
C777        C  0.90455371  0.89084681  0.78518020    -0.17000
C778        C  0.88531601  0.87471216  0.77567838     0.25200
C779        C  0.89363983  0.86779847  0.76049930    -0.18600
C780        C  0.92111835  0.87714218  0.75481514    -0.07500
C781        C  0.85707545  0.86528685  0.78155378    -0.14000
C782        C  0.83357720  0.85718037  0.78661370    -0.13700
C783        C  0.80577004  0.84663159  0.79253268     0.25100
C784        C  0.78943608  0.82587961  0.78405600    -0.19100
C785        C  0.76278864  0.81486585  0.78989865    -0.07600
C786        C  0.75207173  0.82451230  0.80433277    -0.03700
C787        C  0.76853571  0.84563970  0.81271824    -0.09000
C788        C  0.79526089  0.85659002  0.80684410    -0.16600
H789        H  0.94636245  0.91306021  0.78698401     0.11500
H790        H  0.89838591  0.89613484  0.79696990     0.10800
H791        H  0.87886268  0.85532024  0.75305659     0.10700
H792        H  0.92711803  0.87192514  0.74299731     0.11300
H793        H  0.79741126  0.81803473  0.77296843     0.11300
H794        H  0.75069472  0.79867445  0.78311980     0.11300
H795        H  0.76098036  0.85346841  0.82387803     0.11400
H796        H  0.80781555  0.87263344  0.81350479     0.10300
C797        C  0.48779803  0.00726993  0.94107001    -0.03500
C798        C  0.46932047  0.99056305  0.93134098    -0.09300
C799        C  0.45504609  0.00403685  0.91887172    -0.17000
C800        C  0.45926630  0.03428922  0.91596425     0.25200
C801        C  0.47734508  0.05116939  0.92580035    -0.18600
C802        C  0.49152896  0.03771649  0.93834488    -0.07500
C803        C  0.44601856  0.04759830  0.90252341    -0.14000
C804        C  0.43558933  0.05806287  0.89091691    -0.13700
C805        C  0.42376873  0.07023616  0.87683131     0.25100
C806        C  0.43703423  0.09514870  0.87011205    -0.19100
C807        C  0.42564927  0.10702530  0.85642842    -0.07600
C808        C  0.40077707  0.09410790  0.84924471    -0.03700
C809        C  0.38773177  0.06889746  0.85604963    -0.09000
C810        C  0.39916286  0.05708125  0.86974347    -0.16600
H811        H  0.46640539  0.96700955  0.93327483     0.11500
H812        H  0.44117843  0.99075635  0.91132958     0.10800
H813        H  0.48086922  0.07456213  0.92361633     0.10700
H814        H  0.50595771  0.05079342  0.94568654     0.11300
H815        H  0.45617013  0.10543969  0.87546529     0.11300
H816        H  0.43631044  0.12637296  0.85152102     0.11300
H817        H  0.36860492  0.05833794  0.85085251     0.11400
H818        H  0.38877754  0.03771483  0.87481183     0.10300
C819        C  0.67560472  0.82139286  0.84499709    -0.03500
C820        C  0.64992124  0.80862814  0.85141955    -0.09300
C821        C  0.63892825  0.81864932  0.86558161    -0.17000
C822        C  0.65342161  0.84150334  0.87350079     0.25200
C823        C  0.67877032  0.85457091  0.86716289    -0.18600
C824        C  0.68982023  0.84460611  0.85300045    -0.07500
C825        C  0.64218433  0.85162458  0.88809881    -0.14000
C826        C  0.63228084  0.86044457  0.90016772    -0.13700
C827        C  0.61950642  0.87189555  0.91413630     0.25100
C828        C  0.63733875  0.88640120  0.92503823    -0.19100
C829        C  0.62446494  0.89945629  0.93806356    -0.07600
C830        C  0.59368803  0.89811201  0.94019684    -0.03700
C831        C  0.57601754  0.88289947  0.92944427    -0.09000
C832        C  0.58889996  0.86980334  0.91646787    -0.16600
H833        H  0.63837396  0.79079066  0.84556694     0.11500
H834        H  0.61919163  0.80850073  0.87037969     0.10800
H835        H  0.69005427  0.87238537  0.87319196     0.10700
H836        H  0.70957619  0.85498835  0.84838817     0.11300
H837        H  0.66103573  0.88821875  0.92328093     0.11300
H838        H  0.63828090  0.91141034  0.94620236     0.11300
H839        H  0.55220520  0.88190774  0.93091927     0.11400
H840        H  0.57493550  0.85869212  0.90807124     0.10300
C841        C  0.08880241  0.40581517  0.52028466    -0.03500
C842        C  0.08583150  0.37483839  0.51980028    -0.09300
C843        C  0.09926946  0.35730313  0.53109271    -0.17000
C844        C  0.11572719  0.37062147  0.54294055     0.25200
C845        C  0.11855030  0.40153242  0.54353262    -0.18600
C846        C  0.10510746  0.41908557  0.53225570    -0.07500
C847        C  0.13056835  0.35260014  0.55420055    -0.14000
C848        C  0.14428391  0.33810029  0.56341361    -0.13700
C849        C  0.16213794  0.32176292  0.57417262     0.25100
C850        C  0.15451111  0.29271827  0.57823117    -0.19100
C851        C  0.17223376  0.27684666  0.58855716    -0.07600
C852        C  0.19784507  0.28988044  0.59494477    -0.03700
C853        C  0.20528393  0.31910459  0.59074517    -0.09000
C854        C  0.18753175  0.33489634  0.58043559    -0.16600
H855        H  0.07314475  0.36434023  0.51067677     0.11500
H856        H  0.09700451  0.33340328  0.53053008     0.10800
H857        H  0.13130816  0.41202422  0.55263658     0.10700
H858        H  0.10749321  0.44297163  0.53278714     0.11300
H859        H  0.13492261  0.28233086  0.57340015     0.11300
H860        H  0.16585631  0.25440161  0.59151654     0.11300
H861        H  0.22481349  0.32983525  0.59541300     0.11400
H862        H  0.19365478  0.35735622  0.57732293     0.10300
C863        C  0.86454893  0.62902366  0.59570516    -0.03500
C864        C  0.89363274  0.63802176  0.59210340    -0.09300
C865        C  0.91111680  0.62121373  0.58201713    -0.17000
C866        C  0.89980943  0.59523725  0.57536154     0.25200
C867        C  0.87089293  0.58617673  0.57881143    -0.18600
C868        C  0.85339149  0.60288839  0.58891297    -0.07500
C869        C  0.91772088  0.57801431  0.56488311    -0.14000
C870        C  0.93236764  0.56378325  0.55586640    -0.13700
C871        C  0.94946219  0.54736636  0.54468590     0.25100
C872        C  0.93507973  0.53127717  0.53302002    -0.19100
C873        C  0.95159941  0.51646697  0.52172327    -0.07600
C874        C  0.98268771  0.51758324  0.52199773    -0.03700
C875        C  0.99703248  0.53325183  0.53387937    -0.09000
C876        C  0.98048341  0.54812984  0.54515246    -0.16600
H877        H  0.90297733  0.65795384  0.59713035     0.11500
H878        H  0.93345649  0.62848321  0.57941367     0.10800
H879        H  0.86185680  0.56616790  0.57369339     0.10700
H880        H  0.83111429  0.59530612  0.59137872     0.11300
H881        H  0.91110831  0.53048044  0.53254998     0.11300
H882        H  0.94020617  0.50435039  0.51267910     0.11300
H883        H  0.02099365  0.53429084  0.53426140     0.11400
H884        H  0.99185804  0.56049730  0.55411462     0.10300
C885        C  0.21204641  0.63584445  0.85973162    -0.03500
C886        C  0.22325513  0.60954158  0.86622650    -0.09300
C887        C  0.20575309  0.59241453  0.87616079    -0.17000
C888        C  0.17683864  0.60127974  0.87971258     0.25200
C889        C  0.16552345  0.62739855  0.87335013    -0.18600
C890        C  0.18296392  0.64457927  0.86344705    -0.07500
C891        C  0.15867899  0.58358733  0.88982528    -0.14000
C892        C  0.14324768  0.56896957  0.89828285    -0.13700
C893        C  0.12501390  0.55162414  0.90851832     0.25100
C894        C  0.10858207  0.56560023  0.92015707    -0.19100
C895        C  0.09180426  0.54868628  0.93048982    -0.07600
C896        C  0.09143226  0.51761024  0.92931900    -0.03700
C897        C  0.10740003  0.50373786  0.91742068    -0.09000
C898        C  0.12413313  0.52068995  0.90706832    -0.16600
H899        H  0.24552045  0.60215390  0.86363938     0.11500
H900        H  0.21474655  0.57223092  0.88103666     0.10800
H901        H  0.14316810  0.63446490  0.87601491     0.10700
H902        H  0.17355476  0.66461960  0.85864736     0.11300
H903        H  0.10906725  0.58951194  0.92137349     0.11300
H904        H  0.07959620  0.55971541  0.93960917     0.11300
H905        H  0.10741108  0.47979716  0.91639436     0.11400
H906        H  0.13673316  0.50966265  0.89809207     0.10300
C907        C  0.86375473  0.29234257  0.85625379    -0.03500
C908        C  0.85038527  0.31661415  0.86374698    -0.09300
C909        C  0.86661855  0.33419120  0.87405596    -0.17000
C910        C  0.89641376  0.32783620  0.87699169     0.25200
C911        C  0.90986276  0.30364543  0.86969886    -0.18600
C912        C  0.89367587  0.28598762  0.85941988    -0.07500
C913        C  0.91327273  0.34622268  0.88739278    -0.14000
C914        C  0.92770865  0.36135556  0.89609252    -0.13700
C915        C  0.94527754  0.37871055  0.90664727     0.25100
C916        C  0.97624657  0.37707040  0.90611556    -0.19100
C917        C  0.99334851  0.39276715  0.91684101    -0.07600
C918        C  0.97958883  0.41016157  0.92820823    -0.03700
C919        C  0.94855489  0.41222792  0.92851673    -0.09000
C920        C  0.93147300  0.39656120  0.91776900    -0.16600
H921        H  0.82739481  0.32208412  0.86164447     0.11500
H922        H  0.85596425  0.35281932  0.87967840     0.10800
H923        H  0.93291354  0.29850401  0.87190218     0.10700
H924        H  0.90470615  0.26752451  0.85386711     0.11300
H925        H  0.98714091  0.36329378  0.89757307     0.11300
H926        H  0.01725397  0.39084394  0.91652604     0.11300
H927        H  0.93764440  0.42552174  0.93725534     0.11400
H928        H  0.90753813  0.39798487  0.91828445     0.10300
C929        C  0.59373709  0.01798847  0.50940139    -0.03500
C930        C  0.62456304  0.01535840  0.51088616    -0.09300
C931        C  0.63931786  0.02980708  0.52293276    -0.17000
C932        C  0.62334926  0.04701083  0.53351775     0.25200
C933        C  0.59261454  0.04987536  0.53199851    -0.18600
C934        C  0.57783125  0.03535805  0.51999180    -0.07500
C935        C  0.63839821  0.06128791  0.54610555    -0.14000
C936        C  0.65064466  0.07294882  0.55687102    -0.13700
C937        C  0.66462174  0.08654379  0.56998833     0.25100
C938        C  0.65368680  0.11327048  0.57585641    -0.19100
C939        C  0.66656251  0.12602152  0.58895269    -0.07600
C940        C  0.69059097  0.11214906  0.59634312    -0.03700
C941        C  0.70168264  0.08546202  0.59020410    -0.09000
C942        C  0.68871114  0.07273230  0.57712072    -0.16600
H943        H  0.63703128  0.00181952  0.50284803     0.11500
H944        H  0.66309116  0.02738811  0.52406679     0.10800
H945        H  0.58008558  0.06309963  0.54015927     0.10700
H946        H  0.55400857  0.03744401  0.51899091     0.11300
H947        H  0.63503294  0.12411428  0.57039397     0.11300
H948        H  0.65754993  0.14662498  0.59332659     0.11300
H949        H  0.72012515  0.07418834  0.59560325     0.11400
H950        H  0.69729067  0.05199483  0.57265566     0.10300
C951        C  0.48355152  0.91145567  0.51004960    -0.03500
C952        C  0.48338885  0.88040430  0.51128732    -0.09300
C953        C  0.46946298  0.86661313  0.52384685    -0.17000
C954        C  0.45553389  0.88371130  0.53526900     0.25200
C955        C  0.45521046  0.91466275  0.53392532    -0.18600
C956        C  0.46915097  0.92845940  0.52140007    -0.07500
C957        C  0.44245856  0.86963506  0.54861780    -0.14000
C958        C  0.43223922  0.85813737  0.56005397    -0.13700
C959        C  0.42076301  0.84462910  0.57395169     0.25100
C960        C  0.39371186  0.85399427  0.58017155    -0.19100
C961        C  0.38292893  0.84134432  0.59383749    -0.07600
C962        C  0.39902350  0.81901374  0.60148135    -0.03700
C963        C  0.42608461  0.80958554  0.59505762    -0.09000
C964        C  0.43687687  0.82236767  0.58142928    -0.16600
H965        H  0.49462033  0.86695902  0.50272687     0.11500
H966        H  0.46996486  0.84266539  0.52477824     0.10800
H967        H  0.44458801  0.92815232  0.54268317     0.10700
H968        H  0.46919141  0.95243719  0.52067049     0.11300
H969        H  0.38100800  0.87118873  0.57450123     0.11300
H970        H  0.36196418  0.84905050  0.59839173     0.11300
H971        H  0.43910540  0.79253727  0.60063425     0.11400
H972        H  0.45787791  0.81496705  0.57676196     0.10300
C973        C  0.38113664  0.12258437  0.09685899    -0.03500
C974        C  0.37142996  0.09436103  0.09202906    -0.09300
C975        C  0.38920473  0.07686489  0.08243237    -0.17000
C976        C  0.41689966  0.08726920  0.07756968     0.25200
C977        C  0.42703844  0.11498873  0.08256868    -0.18600
C978        C  0.40933222  0.13252623  0.09215754    -0.07500
C979        C  0.43429164  0.07014636  0.06688020    -0.14000
C980        C  0.44809775  0.05640455  0.05735306    -0.13700
C981        C  0.46360437  0.04044508  0.04545730     0.25100
C982        C  0.47833238  0.05595768  0.03372037    -0.19100
C983        C  0.49258936  0.04048136  0.02186579    -0.07600
C984        C  0.49219193  0.00936542  0.02167006    -0.03700
C985        C  0.47762039  0.99390202  0.03352203    -0.09000
C986        C  0.46332208  0.00939800  0.04535354    -0.16600
H987        H  0.34994517  0.08593475  0.09547074     0.11500
H988        H  0.38114517  0.05542599  0.07861049     0.10800
H989        H  0.44844008  0.12325949  0.07885903     0.10700
H990        H  0.41760760  0.15403999  0.09569808     0.11300
H991        H  0.47865259  0.07998171  0.03369365     0.11300
H992        H  0.50394502  0.05268120  0.01285298     0.11300
H993        H  0.47722774  0.96988344  0.03353174     0.11400
H994        H  0.45192883  0.99720199  0.05435886     0.10300
C995        C  0.36480942  0.21611824  0.12524183    -0.03500
C996        C  0.34727421  0.23328525  0.13530501    -0.09300
C997        C  0.35836095  0.25946719  0.14171723    -0.17000
C998        C  0.38701434  0.26899176  0.13810839     0.25200
C999        C  0.40434970  0.25259377  0.12776650    -0.18600
C1000       C  0.39332196  0.22632394  0.12133830    -0.07500
C1001       C  0.39927115  0.29444454  0.14583171    -0.14000
C1002       C  0.41032789  0.31429231  0.15317771    -0.13700
C1003       C  0.42500620  0.33585306  0.16275142     0.25100
C1004       C  0.43391363  0.32791755  0.17765670    -0.19100
C1005       C  0.45018237  0.34779750  0.18666869    -0.07600
C1006       C  0.45787995  0.37588445  0.18086003    -0.03700
C1007       C  0.44801443  0.38410630  0.16606217    -0.09000
C1008       C  0.43168758  0.36412230  0.15704008    -0.16600
H1009       H  0.32521928  0.22616472  0.13855963     0.11500
H1010       H  0.34482044  0.27192173  0.14976768     0.10800
H1011       H  0.42663226  0.25974618  0.12495037     0.10700
H1012       H  0.40736812  0.21371378  0.11361153     0.11300
H1013       H  0.42884738  0.30609808  0.18219105     0.11300
H1014       H  0.45737595  0.34086983  0.19804365     0.11300
H1015       H  0.45350922  0.40558854  0.16129028     0.11400
H1016       H  0.42485374  0.37046920  0.14550900     0.10300
C1017       C  0.09469482  0.41451459  0.43981968    -0.03500
C1018       C  0.10967338  0.43076570  0.42836797    -0.09300
C1019       C  0.12323194  0.41622335  0.41594542    -0.17000
C1020       C  0.12205722  0.38524575  0.41480438     0.25200
C1021       C  0.10761772  0.36886304  0.42633491    -0.18600
C1022       C  0.09397830  0.38340432  0.43876342    -0.07500
C1023       C  0.13475465  0.37053255  0.40151447    -0.14000
C1024       C  0.14487736  0.35929230  0.38996729    -0.13700
C1025       C  0.15672005  0.34716939  0.37578108     0.25100
C1026       C  0.14477959  0.32121431  0.36937967    -0.19100
C1027       C  0.15587431  0.30995807  0.35542416    -0.07600
C1028       C  0.17914965  0.32451141  0.34764887    -0.03700
C1029       C  0.19099050  0.35057606  0.35421353    -0.09000
C1030       C  0.17985080  0.36177394  0.36814080    -0.16600
H1031       H  0.11044395  0.45474997  0.42895125     0.11500
H1032       H  0.13427428  0.42917744  0.40711035     0.10800
H1033       H  0.10648853  0.34490525  0.42558987     0.10700
H1034       H  0.08238983  0.37047374  0.44740981     0.11300
H1035       H  0.12681286  0.30972333  0.37514330     0.11300
H1036       H  0.14622526  0.28985477  0.35075321     0.11300
H1037       H  0.20887261  0.36242344  0.34859268     0.11400
H1038       H  0.18923444  0.38192770  0.37292325     0.10300
C1039       C  0.25322159  0.32819726  0.30552732    -0.03500
C1040       C  0.26237777  0.31869085  0.29076427    -0.09300
C1041       C  0.28914198  0.32848837  0.28451564    -0.17000
C1042       C  0.30716391  0.34793737  0.29288517     0.25200
C1043       C  0.29790523  0.35830170  0.30736904    -0.18600
C1044       C  0.27100888  0.34857074  0.31365410    -0.07500
C1045       C  0.33556388  0.35631656  0.28676085    -0.14000
C1046       C  0.35948166  0.36243605  0.28146553    -0.13700
C1047       C  0.38802683  0.36985759  0.27519588     0.25100
C1048       C  0.40633981  0.38982687  0.28306569    -0.19100
C1049       C  0.43371806  0.39782983  0.27682790    -0.07600
C1050       C  0.44316837  0.38587405  0.26264298    -0.03700
C1051       C  0.42487314  0.36544816  0.25490324    -0.09000
C1052       C  0.39738859  0.35752322  0.26115523    -0.16600
H1053       H  0.24915088  0.30317859  0.28412911     0.11500
H1054       H  0.29605075  0.32042281  0.27327578     0.10800
H1055       H  0.31173251  0.37341971  0.31392843     0.10700
H1056       H  0.26463000  0.35625559  0.32503909     0.11300
H1057       H  0.39933669  0.39943171  0.29395441     0.11300
H1058       H  0.44739472  0.41356655  0.28306258     0.11300
H1059       H  0.43152105  0.35595504  0.24394759     0.11400
H1060       H  0.38334365  0.34200969  0.25498238     0.10300
C1061       C  0.59886794  0.01321772  0.42913155    -0.03500
C1062       C  0.58499141  0.02939702  0.41733535    -0.09300
C1063       C  0.60195762  0.04372468  0.40604691    -0.17000
C1064       C  0.63293063  0.04190315  0.40641217     0.25200
C1065       C  0.64685240  0.02551228  0.41806808    -0.18600
C1066       C  0.62991000  0.01124241  0.42938500    -0.07500
C1067       C  0.65042626  0.05755080  0.39511012    -0.14000
C1068       C  0.66501939  0.07152292  0.38596311    -0.13700
C1069       C  0.68226752  0.08925843  0.37541808     0.25100
C1070       C  0.70916948  0.07864420  0.36959152    -0.19100
C1071       C  0.72617506  0.09622991  0.35963348    -0.07600
C1072       C  0.71645327  0.12471592  0.35533976    -0.03700
C1073       C  0.68929067  0.13509041  0.36122479    -0.09000
C1074       C  0.67238125  0.11749297  0.37119350    -0.16600
H1075       H  0.56107438  0.03114386  0.41699273     0.11500
H1076       H  0.59094792  0.05640824  0.39711678     0.10800
H1077       H  0.67078616  0.02397359  0.41848037     0.10700
H1078       H  0.64093667  0.99875902  0.43838163     0.11300
H1079       H  0.71706617  0.05682848  0.37279258     0.11300
H1080       H  0.74689622  0.08747560  0.35529901     0.11300
H1081       H  0.68110541  0.15687280  0.35819627     0.11400
H1082       H  0.65162894  0.12597655  0.37565903     0.10300
C1083       C  0.72736486  0.21510173  0.32367530    -0.03500
C1084       C  0.69805683  0.22354919  0.32704424    -0.09300
C1085       C  0.68607853  0.24932671  0.32061716    -0.17000
C1086       C  0.70321908  0.26709376  0.31080932     0.25200
C1087       C  0.73255425  0.25921531  0.30763285    -0.18600
C1088       C  0.74457183  0.23343833  0.31401525    -0.07500
C1089       C  0.69014722  0.29229951  0.30323379    -0.14000
C1090       C  0.67834721  0.31183958  0.29600144    -0.13700
C1091       C  0.66299679  0.33277517  0.28634492     0.25100
C1092       C  0.65121555  0.35890546  0.29256728    -0.19100
C1093       C  0.63438894  0.37789807  0.28326683    -0.07600
C1094       C  0.62903691  0.37082800  0.26766821    -0.03700
C1095       C  0.64176205  0.34501411  0.26143116    -0.09000
C1096       C  0.65856578  0.32613465  0.27071692    -0.16600
H1097       H  0.68416091  0.20997555  0.33439964     0.11500
H1098       H  0.66327140  0.25510494  0.32307497     0.10800
H1099       H  0.74598441  0.27270673  0.29999221     0.10700
H1100       H  0.76721601  0.22769497  0.31119279     0.11300
H1101       H  0.65449441  0.36427497  0.30465628     0.11300
H1102       H  0.62491607  0.39765619  0.28837851     0.11300
H1103       H  0.63833835  0.33902196  0.24945281     0.11400
H1104       H  0.66760226  0.30599996  0.26576946     0.10300
C1105       C  0.18555645  0.59927499  0.09965124    -0.03500
C1106       C  0.19748684  0.57333085  0.09307424    -0.09300
C1107       C  0.18507487  0.56103365  0.07973158    -0.17000
C1108       C  0.16061850  0.57445376  0.07274705     0.25200
C1109       C  0.14851814  0.60022157  0.07917281    -0.18600
C1110       C  0.16087644  0.61257663  0.09254252    -0.07500
C1111       C  0.14789174  0.56160675  0.05904942    -0.14000
C1112       C  0.13720729  0.55037579  0.04769892    -0.13700
C1113       C  0.12394337  0.53654375  0.03441113     0.25100
C1114       C  0.12984776  0.50673132  0.03107034    -0.19100
C1115       C  0.11578973  0.49286109  0.01861057    -0.07600
C1116       C  0.09588090  0.50879406  0.00937662    -0.03700
C1117       C  0.09044099  0.53879167  0.01256314    -0.09000
C1118       C  0.10439206  0.55260582  0.02507069    -0.16600
H1119       H  0.21639612  0.56243196  0.09823606     0.11500
H1120       H  0.19455411  0.54103037  0.07486890     0.10800
H1121       H  0.12952709  0.61074636  0.07386041     0.10700
H1122       H  0.15109883  0.63251825  0.09728516     0.11300
H1123       H  0.14491555  0.49411453  0.03823856     0.11300
H1124       H  0.12002596  0.46964384  0.01629036     0.11300
H1125       H  0.07491557  0.55121922  0.00557933     0.11400
H1126       H  0.09961217  0.57564358  0.02759487     0.10300
C1127       C  0.26133733  0.59727354  0.14078178    -0.03500
C1128       C  0.26797986  0.60354147  0.15634069    -0.09300
C1129       C  0.29322068  0.59172647  0.16327184    -0.17000
C1130       C  0.31231433  0.57362265  0.15476211     0.25200
C1131       C  0.30582529  0.56699361  0.13929581    -0.18600
C1132       C  0.28037243  0.57864595  0.13234272    -0.07500
C1133       C  0.33891213  0.56266003  0.16188623    -0.14000
C1134       C  0.36141562  0.55459725  0.16807377    -0.13700
C1135       C  0.38877126  0.54558649  0.17517384     0.25100
C1136       C  0.40692726  0.52499575  0.16769746    -0.19100
C1137       C  0.43388051  0.51669223  0.17429274    -0.07600
C1138       C  0.44312601  0.52897186  0.18845078    -0.03700
C1139       C  0.42470413  0.54954244  0.19596626    -0.09000
C1140       C  0.39763197  0.55777655  0.18935135    -0.16600
H1141       H  0.25366528  0.61763005  0.16319133     0.11500
H1142       H  0.29800548  0.59697387  0.17524180     0.10800
H1143       H  0.32055365  0.55306969  0.13258674     0.10700
H1144       H  0.27590972  0.57357179  0.12032743     0.11300
H1145       H  0.40032050  0.51545401  0.15672192     0.11300
H1146       H  0.44756623  0.50074142  0.16825089     0.11300
H1147       H  0.43111437  0.55920601  0.20692511     0.11400
H1148       H  0.38370358  0.57373678  0.19524332     0.10300
C1149       C  0.13443912  0.04592177  0.18393222    -0.03500
C1150       C  0.16044915  0.05874044  0.18988088    -0.09300
C1151       C  0.17819711  0.07673084  0.18054803    -0.17000
C1152       C  0.17014775  0.08218162  0.16519669     0.25200
C1153       C  0.14372720  0.07042410  0.15934328    -0.18600
C1154       C  0.12589553  0.05245313  0.16867564    -0.07500
C1155       C  0.19034279  0.09766787  0.15520502    -0.14000
C1156       C  0.20955795  0.10847188  0.14735090    -0.13700
C1157       C  0.23483575  0.11928399  0.13896063     0.25100
C1158       C  0.24140109  0.14958364  0.13885642    -0.19100
C1159       C  0.26764578  0.15967634  0.13210094    -0.07600
C1160       C  0.28770165  0.13954893  0.12536398    -0.03700
C1161       C  0.28038728  0.10923435  0.12503622    -0.09000
C1162       C  0.25415326  0.09918155  0.13186327    -0.16600
H1163       H  0.16752617  0.05434694  0.20159951     0.11500
H1164       H  0.19865594  0.08568353  0.18517344     0.10800
H1165       H  0.13735133  0.07442947  0.14745698     0.10700
H1166       H  0.10591081  0.04295941  0.16380534     0.11300
H1167       H  0.22664539  0.16531562  0.14435446     0.11300
H1168       H  0.27250849  0.18319338  0.13245601     0.11300
H1169       H  0.29537552  0.09318026  0.12000173     0.11400
H1170       H  0.24932718  0.07563499  0.13197614     0.10300
C1171       C  0.11672778  0.05815764  0.26513957    -0.03500
C1172       C  0.10393240  0.07103968  0.27835701    -0.09300
C1173       C  0.11426879  0.09813393  0.28400121    -0.17000
C1174       C  0.13751766  0.11278108  0.27654802     0.25200
C1175       C  0.15075130  0.09998628  0.26349544    -0.18600
C1176       C  0.14043650  0.07274594  0.25782082    -0.07500
C1177       C  0.14716528  0.14117026  0.28225259    -0.14000
C1178       C  0.15405942  0.16504346  0.28741149    -0.13700
C1179       C  0.16224452  0.19352681  0.29359751     0.25100
C1180       C  0.18407317  0.21030787  0.28621870    -0.19100
C1181       C  0.19279472  0.23757113  0.29236590    -0.07600
C1182       C  0.17986843  0.24851159  0.30607174    -0.03700
C1183       C  0.15748507  0.23173370  0.31326623    -0.09000
C1184       C  0.14875384  0.20437317  0.30705141    -0.16600
H1185       H  0.08581819  0.06035458  0.28435802     0.11500
H1186       H  0.10392983  0.10779533  0.29412604     0.10800
H1187       H  0.16880684  0.11116298  0.25764097     0.10700
H1188       H  0.15069239  0.06332319  0.24762230     0.11300
H1189       H  0.19459647  0.20217972  0.27578456     0.11300
H1190       H  0.21003331  0.24983982  0.28645117     0.11300
H1191       H  0.14708191  0.23947607  0.32379894     0.11400
H1192       H  0.13173439  0.19153860  0.31282779     0.10300
C1193       C  0.96150263  0.04632988  0.26649954    -0.03500
C1194       C  0.97067248  0.05367492  0.28157518    -0.09300
C1195       C  0.95236504  0.07048507  0.29124527    -0.17000
C1196       C  0.92479138  0.08023045  0.28591806     0.25200
C1197       C  0.91599088  0.07388601  0.27076073    -0.18600
C1198       C  0.93422712  0.05710525  0.26108922    -0.07500
C1199       C  0.90461656  0.09530291  0.29610842    -0.14000
C1200       C  0.88541300  0.10665678  0.30376137    -0.13700
C1201       C  0.86012230  0.11904518  0.31153826     0.25100
C1202       C  0.84502931  0.10255602  0.32276234    -0.19100
C1203       C  0.81861125  0.11327517  0.32910127    -0.07600
C1204       C  0.80690947  0.14063493  0.32423860    -0.03700
C1205       C  0.82275914  0.15739103  0.31326216    -0.09000
C1206       C  0.84911494  0.14661590  0.30694751    -0.16600
H1207       H  0.99162693  0.04576602  0.28603404     0.11500
H1208       H  0.95940258  0.07527542  0.30295819     0.10800
H1209       H  0.89468198  0.08133485  0.26652513     0.10700
H1210       H  0.92655523  0.05200394  0.24954317     0.11300
H1211       H  0.85327452  0.08108175  0.32632933     0.11300
H1212       H  0.80706884  0.09983768  0.33754759     0.11300
H1213       H  0.81448787  0.17854744  0.30925494     0.11400
H1214       H  0.86050942  0.15946663  0.29819012     0.10300
C1215       C  0.11973674  0.85741411  0.18900114    -0.03500
C1216       C  0.10603189  0.84704534  0.17542915    -0.09300
C1217       C  0.11427777  0.81998774  0.16893534    -0.17000
C1218       C  0.13629310  0.80290349  0.17590834     0.25200
C1219       C  0.15010746  0.81297016  0.18944348    -0.18600
C1220       C  0.14186819  0.84014473  0.19598357    -0.07500
C1221       C  0.14492482  0.77533454  0.16893359    -0.14000
C1222       C  0.15249658  0.75267118  0.16273467    -0.13700
C1223       C  0.16317976  0.72606776  0.15552128     0.25100
C1224       C  0.18819954  0.71213074  0.16155763    -0.19100
C1225       C  0.19941924  0.68675135  0.15448721    -0.07600
C1226       C  0.18578729  0.67486519  0.14120121    -0.03700
C1227       C  0.16046151  0.68893870  0.13522923    -0.09000
C1228       C  0.14922749  0.71444135  0.14237309    -0.16600
H1229       H  0.08888101  0.85985062  0.16980009     0.11500
H1230       H  0.10351841  0.81242569  0.15844624     0.10800
H1231       H  0.16724975  0.79987138  0.19490385     0.10700
H1232       H  0.15274581  0.84753705  0.20645058     0.11300
H1233       H  0.19918944  0.72100399  0.17169992     0.11300
H1234       H  0.21894616  0.67658824  0.15942791     0.11300
H1235       H  0.14944006  0.68036689  0.12504066     0.11400
H1236       H  0.12982984  0.72516898  0.13760173     0.10300
C1237       C  0.88840299  0.30454030  0.09384268    -0.03500
C1238       C  0.87724916  0.33158652  0.08821981    -0.09300
C1239       C  0.88942712  0.34460267  0.07501809    -0.17000
C1240       C  0.91278256  0.33073461  0.06725052     0.25200
C1241       C  0.92379160  0.30368275  0.07261655    -0.18600
C1242       C  0.91171142  0.29064434  0.08582974    -0.07500
C1243       C  0.92620701  0.34477613  0.05411593    -0.14000
C1244       C  0.93842671  0.35696412  0.04351350    -0.13700
C1245       C  0.95401733  0.37194626  0.03134787     0.25100
C1246       C  0.98466514  0.36824252  0.02981854    -0.19100
C1247       C  0.00008102  0.38344520  0.01828433    -0.07600
C1248       C  0.98489173  0.40236020  0.00817785    -0.03700
C1249       C  0.95415315  0.40590493  0.00968856    -0.09000
C1250       C  0.93876600  0.39076360  0.02126477    -0.16600
H1251       H  0.85935328  0.34289579  0.09410157     0.11500
H1252       H  0.88083833  0.36562114  0.07096642     0.10800
H1253       H  0.94192368  0.29282107  0.06668229     0.10700
H1254       H  0.92075553  0.26977722  0.08979416     0.11300
H1255       H  0.99664396  0.35378929  0.03760527     0.11300
H1256       H  0.02381674  0.38058990  0.01724155     0.11300
H1257       H  0.94223266  0.42058361  0.00199931     0.11400
H1258       H  0.91507459  0.39386305  0.02241781     0.10300
C1259       C  0.98006094  0.05674981  0.18380557    -0.03500
C1260       C  0.99616770  0.07249403  0.17255338    -0.09300
C1261       C  0.98397518  0.09745251  0.16548336    -0.17000
C1262       C  0.95557682  0.10696916  0.16955587     0.25200
C1263       C  0.93954459  0.09173005  0.18090896    -0.18600
C1264       C  0.95175135  0.06677230  0.18804008    -0.07500
C1265       C  0.94276618  0.13211226  0.16191640    -0.14000
C1266       C  0.93180522  0.15303545  0.15548000    -0.13700
C1267       C  0.91809938  0.17801443  0.14812935     0.25100
C1268       C  0.89108836  0.18865067  0.15371920    -0.19100
C1269       C  0.87785708  0.21326276  0.14686069    -0.07600
C1270       C  0.89147714  0.22758230  0.13426453    -0.03700
C1271       C  0.91850776  0.21651058  0.12860023    -0.09000
C1272       C  0.93175393  0.19187509  0.13552759    -0.16600
H1273       H  0.01814790  0.06557599  0.16914208     0.11500
H1274       H  0.99660451  0.10918492  0.15675882     0.10800
H1275       H  0.91753814  0.09899230  0.18415460     0.10700
H1276       H  0.93891088  0.05509850  0.19669034     0.11300
H1277       H  0.88032139  0.17801375  0.16344562     0.11300
H1278       H  0.85698516  0.22108278  0.15147855     0.11300
H1279       H  0.92957352  0.22702755  0.11894245     0.11400
H1280       H  0.95269140  0.18375144  0.13111859     0.10300
C1281       C  0.81443409  0.30396254  0.13582447    -0.03500
C1282       C  0.80330777  0.29111535  0.14947318    -0.09300
C1283       C  0.77831196  0.30280081  0.15669545    -0.17000
C1284       C  0.76408208  0.32745484  0.15041431     0.25200
C1285       C  0.77499176  0.34059627  0.13690856    -0.18600
C1286       C  0.80006717  0.32893491  0.12963534    -0.07500
C1287       C  0.73823501  0.33910141  0.15787351    -0.14000
C1288       C  0.71661351  0.34881122  0.16420660    -0.13700
C1289       C  0.69095534  0.36145808  0.17139272     0.25100
C1290       C  0.67523326  0.34574085  0.18269297    -0.19100
C1291       C  0.65013509  0.35833128  0.18953315    -0.07600
C1292       C  0.64056694  0.38667845  0.18504858    -0.03700
C1293       C  0.65665327  0.40227483  0.17375135    -0.09000
C1294       C  0.68168130  0.38972571  0.16698559    -0.16600
H1295       H  0.81381534  0.27193070  0.15458958     0.11500
H1296       H  0.77002935  0.29253698  0.16716292     0.10800
H1297       H  0.76407955  0.35976330  0.13198654     0.10700
H1298       H  0.80807410  0.33936855  0.11916754     0.11300
H1299       H  0.68231988  0.32380572  0.18617623     0.11300
H1300       H  0.63812743  0.34586812  0.19820960     0.11300
H1301       H  0.65007493  0.42423311  0.17012487     0.11400
H1302       H  0.69378469  0.40207195  0.15828664     0.10300
C1303       C  0.37047865  0.78506320  0.35953388    -0.03500
C1304       C  0.36066511  0.81327714  0.36427916    -0.09300
C1305       C  0.37850186  0.83123364  0.37363369    -0.17000
C1306       C  0.40634268  0.82128131  0.37843245     0.25200
C1307       C  0.41608685  0.79304494  0.37405311    -0.18600
C1308       C  0.39830934  0.77503949  0.36466928    -0.07500
C1309       C  0.42476253  0.83996686  0.38794631    -0.14000
C1310       C  0.43972103  0.85529818  0.39631413    -0.13700
C1311       C  0.45679492  0.87261543  0.40711744     0.25100
C1312       C  0.47147202  0.85842090  0.41927562    -0.19100
C1313       C  0.48669694  0.87507180  0.43035329    -0.07600
C1314       C  0.48730868  0.90614506  0.42942402    -0.03700
C1315       C  0.47306085  0.92030706  0.41703278    -0.09000
C1316       C  0.45784002  0.90359270  0.40592630    -0.16600
H1317       H  0.33937350  0.82171960  0.36059689     0.11500
H1318       H  0.37064780  0.85297387  0.37703674     0.10800
H1319       H  0.43751705  0.78502053  0.37780119     0.10700
H1320       H  0.40652096  0.75342268  0.36131798     0.11300
H1321       H  0.47082103  0.83448588  0.42030512     0.11300
H1322       H  0.49776728  0.86379126  0.43975949     0.11300
H1323       H  0.47342142  0.94425685  0.41611298     0.11400
H1324       H  0.44656420  0.91481148  0.39656373     0.10300
C1325       C  0.12766204  0.87317393  0.27122067    -0.03500
C1326       C  0.15743962  0.86856730  0.26714048    -0.09300
C1327       C  0.17594857  0.85170125  0.27657133    -0.17000
C1328       C  0.16497110  0.83901155  0.29016067     0.25200
C1329       C  0.13514983  0.84284127  0.29416048    -0.18600
C1330       C  0.11655155  0.85986209  0.28473574    -0.07500
C1331       C  0.18483416  0.82282244  0.30003816    -0.14000
C1332       C  0.20374631  0.81038915  0.30741797    -0.13700
C1333       C  0.22854535  0.79666819  0.31501458     0.25100
C1334       C  0.24292255  0.81117707  0.32721196    -0.19100
C1335       C  0.26873389  0.79918896  0.33358756    -0.07600
C1336       C  0.28054746  0.77251460  0.32780158    -0.03700
C1337       C  0.26543533  0.75772573  0.31580599    -0.09000
C1338       C  0.23969028  0.76978125  0.30944637    -0.16600
H1339       H  0.16665037  0.87853541  0.25681708     0.11500
H1340       H  0.19897975  0.84889054  0.27336110     0.10800
H1341       H  0.12639926  0.83303956  0.30463980     0.10700
H1342       H  0.09367883  0.86286508  0.28813021     0.11300
H1343       H  0.23457707  0.83210147  0.33155600     0.11300
H1344       H  0.27972344  0.81112813  0.34282395     0.11300
H1345       H  0.27385279  0.73718137  0.31104892     0.11400
H1346       H  0.22886356  0.75846218  0.29993776     0.10300
C1347       C  0.45576711  0.53999480  0.26931922    -0.03500
C1348       C  0.44733719  0.56751862  0.26310877    -0.09300
C1349       C  0.43039111  0.58731342  0.27180790    -0.17000
C1350       C  0.42155361  0.57986486  0.28680584     0.25200
C1351       C  0.42883309  0.55203746  0.29287213    -0.18600
C1352       C  0.44580724  0.53213661  0.28416018    -0.07500
C1353       C  0.40655644  0.60156389  0.29616643    -0.14000
C1354       C  0.39531760  0.62128814  0.30352748    -0.13700
C1355       C  0.38272214  0.64622280  0.31157627     0.25100
C1356       C  0.35366746  0.65498739  0.30840721    -0.19100
C1357       C  0.34190135  0.68021336  0.31549173    -0.07600
C1358       C  0.35907369  0.69712802  0.32586777    -0.03700
C1359       C  0.38814520  0.68784592  0.32917764    -0.09000
C1360       C  0.39988210  0.66258785  0.32204406    -0.16600
H1361       H  0.45452730  0.57412022  0.25167292     0.11500
H1362       H  0.42484121  0.60875512  0.26698075     0.10800
H1363       H  0.42205227  0.54603218  0.30446754     0.10700
H1364       H  0.45183269  0.51108148  0.28923419     0.11300
H1365       H  0.34022569  0.64256353  0.30028044     0.11300
H1366       H  0.31944624  0.68663014  0.31267269     0.11300
H1367       H  0.40200788  0.70034009  0.33706517     0.11400
H1368       H  0.42247460  0.65607584  0.32452265     0.10300
C1369       C  0.71713531  0.79223432  0.09570184    -0.03500
C1370       C  0.73056741  0.81552492  0.08742092    -0.09300
C1371       C  0.71385534  0.83311566  0.07738178    -0.17000
C1372       C  0.68350354  0.82779512  0.07554336     0.25200
C1373       C  0.66993364  0.80476357  0.08375340    -0.18600
C1374       C  0.68661253  0.78703997  0.09372715    -0.07500
C1375       C  0.66640417  0.84535151  0.06491395    -0.14000
C1376       C  0.65199389  0.85902544  0.05561161    -0.13700
C1377       C  0.63488891  0.87410811  0.04399981     0.25100
C1378       C  0.60396330  0.87520160  0.04515459    -0.19100
C1379       C  0.58731450  0.88891401  0.03357224    -0.07600
C1380       C  0.60145552  0.90168491  0.02072533    -0.03700
C1381       C  0.63248665  0.90068662  0.01968152    -0.09000
C1382       C  0.64910333  0.88691811  0.03125405    -0.16600
H1383       H  0.75402098  0.82005851  0.08861762     0.11500
H1384       H  0.72462741  0.85078247  0.07101566     0.10800
H1385       H  0.64646294  0.80041096  0.08239492     0.10700
H1386       H  0.67553159  0.76942973  0.09997535     0.11300
H1387       H  0.59272956  0.86530770  0.05494667     0.11300
H1388       H  0.56340839  0.88957113  0.03458802     0.11300
H1389       H  0.64377578  0.91064417  0.00992864     0.11400
H1390       H  0.67301060  0.88615566  0.03023385     0.10300
C1391       C  0.63184037  0.54510419  0.18510186    -0.03500
C1392       C  0.64339962  0.57137418  0.19150905    -0.09300
C1393       C  0.65989739  0.59094252  0.18244256    -0.17000
C1394       C  0.66528795  0.58449082  0.16688553     0.25200
C1395       C  0.65520615  0.55767708  0.16058629    -0.18600
C1396       C  0.63860861  0.53801257  0.16966352    -0.07500
C1397       C  0.67949682  0.60640464  0.15732437    -0.14000
C1398       C  0.69025853  0.62665943  0.15016037    -0.13700
C1399       C  0.70275481  0.65230207  0.14269146     0.25100
C1400       C  0.73044745  0.66291426  0.14736775    -0.19100
C1401       C  0.74223141  0.68852911  0.14070683    -0.07600
C1402       C  0.72642171  0.70406581  0.12926362    -0.03700
C1403       C  0.69859384  0.69316064  0.12457436    -0.09000
C1404       C  0.68685089  0.66742824  0.13126480    -0.16600
H1405       H  0.63902341  0.57737070  0.20339759     0.11500
H1406       H  0.66771652  0.61155196  0.18746224     0.10800
H1407       H  0.65938243  0.55239750  0.14856316     0.10700
H1408       H  0.63019310  0.51783415  0.16445755     0.11300
H1409       H  0.74284295  0.65153436  0.15628555     0.11300
H1410       H  0.76364942  0.69627184  0.14466273     0.11300
H1411       H  0.68582873  0.70455835  0.11582054     0.11400
H1412       H  0.66527269  0.65949929  0.12763420     0.10300
C1413       C  0.80729894  0.77680414  0.12696612    -0.03500
C1414       C  0.82342433  0.75952486  0.13757868    -0.09300
C1415       C  0.84996454  0.77001564  0.14383290    -0.17000
C1416       C  0.86088063  0.79784181  0.13955482     0.25200
C1417       C  0.84543274  0.81494463  0.12874157    -0.18600
C1418       C  0.81883155  0.80448580  0.12244440    -0.07500
C1419       C  0.88679906  0.80960453  0.14706083    -0.14000
C1420       C  0.90694671  0.82045683  0.15426135    -0.13700
C1421       C  0.92857867  0.83534657  0.16370724     0.25100
C1422       C  0.95639595  0.84292925  0.15771099    -0.19100
C1423       C  0.97603453  0.86014645  0.16648864    -0.07600
C1424       C  0.96787213  0.87007220  0.18130283    -0.03700
C1425       C  0.94043125  0.86120964  0.18746353    -0.09000
C1426       C  0.92091789  0.84401298  0.17870798    -0.16600
H1427       H  0.81529286  0.73809480  0.14131303     0.11500
H1428       H  0.86164884  0.75667227  0.15225680     0.10800
H1429       H  0.85362023  0.83662319  0.12542388     0.10700
H1430       H  0.80701649  0.81835480  0.11432109     0.11300
H1431       H  0.96254718  0.83628632  0.14610920     0.11300
H1432       H  0.99705141  0.86650176  0.16145902     0.11300
H1433       H  0.93363482  0.86833254  0.19888581     0.11400
H1434       H  0.89947233  0.83822441  0.18347428     0.10300
C1435       C  0.98940031  0.52645022  0.44174638    -0.03500
C1436       C  0.95843824  0.52527107  0.44032270    -0.09300
C1437       C  0.94444053  0.53894788  0.42780821    -0.17000
C1438       C  0.96130510  0.55391052  0.41667303     0.25200
C1439       C  0.99208565  0.55596222  0.41834460    -0.18600
C1440       C  0.00608626  0.54230322  0.43083016    -0.07500
C1441       C  0.94743243  0.56552600  0.40301489    -0.14000
C1442       C  0.93707206  0.57416854  0.39101036    -0.13700
C1443       C  0.92604943  0.58378841  0.37625905     0.25100
C1444       C  0.94327701  0.60255357  0.36703918    -0.19100
C1445       C  0.93286457  0.61172151  0.35261574    -0.07600
C1446       C  0.90505105  0.60213639  0.34718278    -0.03700
C1447       C  0.88799277  0.58304001  0.35649773    -0.09000
C1448       C  0.89843787  0.57397643  0.37095207    -0.16600
H1449       H  0.94530646  0.51294158  0.44860243     0.11500
H1450       H  0.92062004  0.53715654  0.42658539     0.10800
H1451       H  0.00533132  0.56741471  0.40977079     0.10700
H1452       H  0.02999741  0.54329509  0.43175671     0.11300
H1453       H  0.96477965  0.61010826  0.37100011     0.11300
H1454       H  0.94663439  0.62630357  0.34573401     0.11300
H1455       H  0.86647577  0.57528413  0.35269596     0.11400
H1456       H  0.88498913  0.55932628  0.37797998     0.10300
C1457       C  0.82941097  0.59922598  0.30597609    -0.03500
C1458       C  0.81294176  0.57761684  0.31398279    -0.09300
C1459       C  0.78598357  0.56737921  0.30803570    -0.17000
C1460       C  0.77521570  0.57859139  0.29404818     0.25200
C1461       C  0.79152045  0.59986391  0.28595319    -0.18600
C1462       C  0.81841834  0.61012210  0.29185182    -0.07500
C1463       C  0.74734028  0.56850767  0.28800416    -0.14000
C1464       C  0.72398046  0.56015626  0.28288103    -0.13700
C1465       C  0.69619985  0.54943253  0.27702030     0.25100
C1466       C  0.68189380  0.56415309  0.26490140    -0.19100
C1467       C  0.65501022  0.55327721  0.25915036    -0.07600
C1468       C  0.64223424  0.52758016  0.26549482    -0.03700
C1469       C  0.65673367  0.51310926  0.27772878    -0.09000
C1470       C  0.68353692  0.52397468  0.28343131    -0.16600
H1471       H  0.82073155  0.56878028  0.32487566     0.11500
H1472       H  0.77347915  0.55085728  0.31437726     0.10800
H1473       H  0.78336834  0.60864627  0.27510910     0.10700
H1474       H  0.83046945  0.62674469  0.28536278     0.11300
H1475       H  0.69156213  0.58391770  0.25986865     0.11300
H1476       H  0.64432120  0.56484586  0.24972184     0.11300
H1477       H  0.64757645  0.49329143  0.28289602     0.11400
H1478       H  0.69444751  0.51243849  0.29281260     0.10300
C1479       C  0.91210018  0.66964932  0.30254334    -0.03500
C1480       C  0.90106695  0.67972464  0.28826533    -0.09300
C1481       C  0.91295084  0.70497723  0.28128763    -0.17000
C1482       C  0.93605040  0.72046997  0.28842895     0.25200
C1483       C  0.94783860  0.71015656  0.30237895    -0.18600
C1484       C  0.93600418  0.68484115  0.30939131    -0.07500
C1485       C  0.94643942  0.74782014  0.28185011    -0.14000
C1486       C  0.95379046  0.77147038  0.27664213    -0.13700
C1487       C  0.96167486  0.80031800  0.27090631     0.25100
C1488       C  0.98201252  0.81779023  0.27904228    -0.19100
C1489       C  0.98934731  0.84606084  0.27368614    -0.07600
C1490       C  0.97634930  0.85724309  0.26013164    -0.03700
C1491       C  0.95586461  0.83958298  0.25202818    -0.09000
C1492       C  0.94858833  0.81124660  0.25740119    -0.16600
H1493       H  0.88279144  0.66851669  0.28261942     0.11500
H1494       H  0.90366822  0.71279567  0.27049048     0.10800
H1495       H  0.96571967  0.72205010  0.30800659     0.10700
H1496       H  0.94504981  0.67768112  0.32035546     0.11300
H1497       H  0.99217354  0.80958028  0.28953957     0.11300
H1498       H  0.00523267  0.85915001  0.28015085     0.11300
H1499       H  0.94558592  0.84750046  0.24152396     0.11400
H1500       H  0.93274368  0.79789454  0.25104543     0.10300
loop_ 
_geom_bond_atom_site_label_1 
_geom_bond_atom_site_label_2 
_geom_bond_distance 
_geom_bond_site_symmetry_2 
_ccdc_geom_bond_type 
C1            N2   1.356       .  A
C1            N6   1.358       .  A
C1         C1479   1.481       .  S
N2            C3   1.356       .  A
C3            N4   1.359       .  A
C3         C1457   1.481       .  S
N4            C5   1.360       .  A
C5            N6   1.360       .  A
C5         C1446   1.482       .  S
C7            N8   1.356       .  A
C7           N12   1.359       .  A
C7         C1413   1.483       .  S
N8            C9   1.356       .  A
C9           N10   1.360       .  A
C9         C1402   1.484       .  S
N10          C11   1.362       .  A
C11          N12   1.361       .  A
C11        C1369   1.483       .  S
C13          N14   1.358       .  A
C13          N18   1.360       .  A
C13        C1358   1.484       .  S
N14          C15   1.357       .  A
C15          N16   1.359       .  A
C15        C1336   1.484       .  S
N16          C17   1.360       .  A
C17          N18   1.361       .  A
C17        C1303   1.485       .  S
C19          N20   1.360       .  A
C19          N24   1.360       .  A
C19        C1237   1.480       .  S
N20          C21   1.358       .  A
C21          N22   1.355       .  A
C21        C1281   1.479       .  S
N22          C23   1.355       .  A
C23          N24   1.358       .  A
C23        C1270   1.479       .  S
C25          N43   1.350       .  A
C25          C62   1.463       .  S
C25        C1325   1.478       .  S
N26          N43   1.323       .  A
N26          N48   1.318       .  A
N26         Co63   2.080       .  S
C27          N52   1.340   1_545  A
C27          C65   1.463       .  S
C27          H72   1.081       .  S
H28          C69   1.081       .  S
C29          N53   1.343       .  A
C29          C33   1.464   1_455  S
C29          H58   1.081       .  S
Co30         N48   2.081       .  S
Co30         N38   2.079       .  S
Co30         N70   2.077       .  S
Co30         N46   2.081       .  S
Co30        Cl74   2.447       .  S
N31          C69   1.342       .  A
N31          N38   1.320   1_655  A
N31         Co32   2.090       .  S
Co32         N35   2.076       .  S
Co32         N52   2.078       .  S
Co32         N39   2.094       .  S
Co32        Cl74   2.451   1_655  S
C33          N71   1.349       .  A
C33        C1424   1.477       .  S
N34          N41   1.320       .  A
N34          N64   1.320       .  A
N34         Co67   2.073       .  S
N35          N53   1.317   1_655  A
N35          N71   1.322       .  A
N36          C65   1.350   1_455  A
N36          N46   1.324   1_545  A
H37          C62   1.081       .  S
N38          N59   1.322       .  A
N39          N57   1.320   1_655  A
N39          N44   1.326   1_565  A
C40          N44   1.353       .  A
C40          C68   1.457   1_655  S
C40        C1259   1.476       .  S
N41          C56   1.344       .  A
N41         Co63   2.093       .  S
C42          N70   1.336   1_545  A
C42          C45   1.458       .  S
C42          H76   1.081       .  S
C45          N66   1.353       .  A
C45        C1171   1.478       .  S
N46          N52   1.318   1_455  A
N47          C73   1.340   1_565  A
N47          N49   1.318       .  A
N47         Co63   2.080       .  S
N48          C62   1.342       .  A
N49          N77   1.323   1_565  A
N49         Co67   2.078       .  S
H50          C73   1.081       .  S
H51          C68   1.081       .  S
N53         Co67   2.084       .  S
N54          N66   1.326   1_565  A
N54          N70   1.321       .  A
N54         Co63   2.095       .  S
C55          N59   1.349   1_655  A
C55          C69   1.463       .  S
C55        C1490   1.476       .  S
C56          C75   1.465       .  S
C56          H60   1.081       .  S
N57          C68   1.337   1_565  A
N57         Co67   2.074       .  S
C61          N77   1.349       .  A
C61          C73   1.462       .  S
C61        C1149   1.477       .  S
Co63        Cl74   2.451       .  S
N64          C75   1.347       .  A
C65        C1193   1.478       .  S
Co67        Cl74   2.447       .  S
C75        C1215   1.475       .  S
C78          N79   1.362       .  A
C78          N83   1.362       .  A
C78        C1105   1.483       .  S
N79          C80   1.358       .  A
C80          N81   1.354       .  A
C80        C1127   1.479       .  S
N81          C82   1.355       .  A
C82          N83   1.360       .  A
C82        C1226   1.481       .  S
C84          N85   1.360       .  A
C84          N89   1.358       .  A
C84        C1204   1.484       .  S
N85          C86   1.360       .  A
C86          N87   1.360       .  A
C86        C1072   1.485       .  S
N87          C88   1.359       .  A
C88          N89   1.358       .  A
C88        C1083   1.484       .  S
C90          N91   1.363       .  A
C90          N95   1.364       .  A
C90        C1028   1.489       .  S
N91          C92   1.359       .  A
C92          N93   1.353       .  A
C92        C1039   1.481       .  S
N93          C94   1.354       .  A
C94          N95   1.362       .  A
C94        C1182   1.484       .  S
C96          N97   1.360       .  A
C96         N101   1.361       .  A
C96         C973   1.484       .  S
N97          C98   1.358       .  A
C98          N99   1.355       .  A
C98         C995   1.481       .  S
N99         C100   1.355       .  A
C100        N101   1.360       .  A
C100       C1160   1.480       .  S
C102        N120   1.353       .  A
C102        C139   1.458       .  S
C102       C1468   1.476       .  S
N103        N120   1.326       .  A
N103        N125   1.320       .  A
N103       Co140   2.095       .  S
C104        N129   1.343       .  A
C104        C142   1.464       .  S
C104        H149   1.081       .  S
H105        C146   1.081       .  S
C106        N130   1.335       .  A
C106        C110   1.457       .  S
C106        H135   1.081       .  S
Co107       N125   2.072       .  S
Co107       N115   2.088       .  S
Co107       N147   2.088       .  S
Co107       N123   2.073       .  S
Co107      Cl151   2.453       .  S
N108        C146   1.339       .  A
N108        N115   1.318       .  A
N108       Co109   2.076       .  S
Co109       N112   2.093       .  S
Co109       N129   2.093       .  S
Co109       N116   2.074       .  S
Co109      Cl151   2.446       .  S
C110        N148   1.352       .  A
C110       C1292   1.474       .  S
N111        N118   1.317       .  A
N111        N141   1.327       .  A
N111       Co144   2.090       .  S
N112        N130   1.320       .  A
N112        N148   1.326       .  A
N113        C142   1.347       .  A
N113        N123   1.321       .  A
H114        C139   1.081       .  S
N115        N136   1.326       .  A
N116        N134   1.318       .  A
N116        N121   1.322       .  A
C117        N121   1.348       .  A
C117        C145   1.464       .  S
C117       C1006   1.477       .  S
N118        C133   1.337       .  A
N118       Co140   2.072       .  S
C119        N147   1.343       .  A
C119        C122   1.465       .  S
C119        H153   1.081       .  S
C122        N143   1.348       .  A
C122       C1347   1.478       .  S
N123        N129   1.320       .  A
N124        C150   1.344       .  A
N124        N126   1.320       .  A
N124       Co140   2.096       .  S
N125        C139   1.336       .  A
N126        N154   1.322       .  A
N126       Co144   2.075       .  S
H127        C150   1.081       .  S
H128        C145   1.081       .  S
N130       Co144   2.071       .  S
N131        N143   1.322       .  A
N131        N147   1.318       .  A
N131       Co140   2.072       .  S
C132        N136   1.352       .  A
C132        C146   1.461       .  S
C132       C1094   1.480       .  S
C133        C152   1.460       .  S
C133        H137   1.081       .  S
N134        C145   1.343       .  A
N134       Co144   2.086       .  S
C138        N154   1.348       .  A
C138        C150   1.465       .  S
C138       C1138   1.478       .  S
Co140      Cl151   2.445       .  S
N141        C152   1.353       .  A
C142       C1050   1.475       .  S
Co144      Cl151   2.453       .  S
C152       C1391   1.480       .  S
N155        C160   1.352       .  A
N155        C159   1.354       .  A
N155        H187   1.031       .  S
N156        C163   1.353       .  A
N156        C164   1.351       .  A
N157        C162   1.355       .  A
N157        C161   1.354       .  A
N157        H188   1.030       .  S
N158        C165   1.350   1_565  A
N158        C166   1.351   1_565  A
C159        C167   1.387       .  A
C159        C175   1.413       .  A
C160        C176   1.412   1_565  A
C160        C168   1.387       .  A
C161        C169   1.387       .  A
C161        C178   1.416       .  A
C162        C177   1.415       .  A
C162        C170   1.386       .  A
C163        C175   1.413       .  A
C163        C171   1.385       .  A
C164        C178   1.416       .  A
C164        C172   1.387       .  A
C165        C173   1.386       .  A
C165        C176   1.410       .  A
C166        C174   1.386       .  A
C166        C177   1.412   1_545  A
C167        H179   1.082       .  S
C167        C168   1.374       .  A
C168        H180   1.082       .  S
C169        H181   1.082       .  S
C169        C170   1.376       .  A
C170        H182   1.082       .  S
C171        H183   1.082       .  S
C171        C172   1.374       .  A
C172        H184   1.082       .  S
C173        H185   1.082       .  S
C173        C174   1.373       .  A
C174        H186   1.082       .  S
C175        C951   1.489       .  S
C176        C929   1.479       .  S
C177       C1061   1.486   1_565  S
C178       C1314   1.486       .  S
N189        C194   1.352   1_556  A
N189        C193   1.351   1_556  A
N189        H221   1.035       .  S
N190        C197   1.351       .  A
N190        C198   1.351       .  A
N191        C196   1.353       .  A
N191        C195   1.354       .  A
N191        H222   1.034       .  S
N192        C199   1.351   1_455  A
N192        C200   1.350   1_455  A
C193        C201   1.387       .  A
C193        C209   1.412   1_554  A
C194        C210   1.412   1_554  A
C194        C202   1.387       .  A
C195        C203   1.387       .  A
C195        C212   1.417       .  A
C196        C211   1.416   1_455  A
C196        C204   1.387       .  A
C197        C209   1.410       .  A
C197        C205   1.385       .  A
C198        C212   1.415       .  A
C198        C206   1.388       .  A
C199        C207   1.385       .  A
C199        C210   1.410   1_655  A
C200        C208   1.387       .  A
C200        C211   1.413       .  A
C201        H213   1.082       .  S
C201        C202   1.374       .  A
C202        H214   1.082       .  S
C203        H215   1.082       .  S
C203        C204   1.377       .  A
C204        H216   1.082   1_455  S
C205        H217   1.082       .  S
C205        C206   1.372       .  A
C206        H218   1.082       .  S
C207        H219   1.082       .  S
C207        C208   1.371       .  A
C208        H220   1.082       .  S
C209       C1116   1.479   1_556  S
C210       C1248   1.479   1_456  S
C211        C918   1.483       .  S
C212        C896   1.485       .  S
N223        C228   1.352       .  A
N223        C227   1.355       .  A
N223        H255   1.039       .  S
N224        C231   1.353       .  A
N224        C232   1.351       .  A
N225        C230   1.354       .  A
N225        C229   1.352       .  A
N225        H256   1.038       .  S
N226        C233   1.351       .  A
N226        C234   1.352   1_455  A
C227        C235   1.387       .  A
C227        C243   1.416       .  A
C228        C244   1.416       .  A
C228        C236   1.388       .  A
C229        C237   1.388       .  A
C229        C246   1.415       .  A
C230        C245   1.415       .  A
C230        C238   1.386       .  A
C231        C243   1.414       .  A
C231        C239   1.385       .  A
C232        C246   1.415       .  A
C232        C240   1.387       .  A
C233        C241   1.386   1_455  A
C233        C244   1.412       .  A
C234        C242   1.386       .  A
C234        C245   1.413   1_655  A
C235        H247   1.082       .  S
C235        C236   1.374       .  A
C236        H248   1.082       .  S
C237        H249   1.082       .  S
C237        C238   1.375       .  A
C238        H250   1.082       .  S
C239        H251   1.082       .  S
C239        C240   1.373       .  A
C240        H252   1.082       .  S
C241        H253   1.082       .  S
C241        C242   1.373       .  A
C242        H254   1.082       .  S
C243       C1017   1.493       .  S
C244       C1435   1.483   1_455  S
C245        C874   1.487   1_455  S
C246        C841   1.482       .  S
N257        C262   1.350       .  A
N257        C261   1.352       .  A
N257        H289   1.038       .  S
N258        C265   1.351       .  A
N258        C266   1.349       .  A
N259        C264   1.353       .  A
N259        C263   1.352       .  A
N259        H290   1.039   1_554  S
N260        C267   1.350       .  A
N260        C268   1.350       .  A
C261        C269   1.386       .  A
C261        C277   1.411       .  A
C262        C278   1.412       .  A
C262        C270   1.388       .  A
C263        C271   1.386       .  A
C263        C280   1.413       .  A
C264        C279   1.414       .  A
C264        C272   1.387       .  A
C265        C277   1.409       .  A
C265        C273   1.385   1_565  A
C266        C280   1.411   1_556  A
C266        C274   1.387   1_565  A
C267        C275   1.386       .  A
C267        C278   1.410       .  A
C268        C276   1.387       .  A
C268        C279   1.412   1_556  A
C269        H281   1.082       .  S
C269        C270   1.374       .  A
C270        H282   1.082       .  S
C271        H283   1.082       .  S
C271        C272   1.374       .  A
C272        H284   1.082       .  S
C273        H285   1.082       .  S
C273        C274   1.374       .  A
C274        H286   1.082       .  S
C275        H287   1.082       .  S
C275        C276   1.374       .  A
C276        H288   1.082       .  S
C277        C797   1.481   1_565  S
C278        C830   1.478       .  S
C279       C1380   1.487       .  S
C280        C984   1.481   1_565  S
C291        N292   1.358       .  A
C291        N296   1.357       .  A
C291        C786   1.480       .  S
N292        C293   1.359       .  A
C293        N294   1.359       .  A
C293        C819   1.481       .  S
N294        C295   1.358       .  A
C295        N296   1.356       .  A
C295        C764   1.479       .  S
C297        N298   1.360       .  A
C297        N302   1.356       .  A
C297        C731   1.483       .  S
N298        C299   1.361       .  A
C299        N300   1.361       .  A
C299        C907   1.484       .  S
N300        C301   1.359       .  A
C301        N302   1.356       .  A
C301        C720   1.482       .  S
C303        N304   1.362       .  A
C303        N308   1.363       .  A
C303        C808   1.485       .  S
N304        C305   1.359       .  A
C305        N306   1.354       .  A
C305        C698   1.480       .  S
N306        C307   1.353       .  A
C307        N308   1.360       .  A
C307        C665   1.481       .  S
C309        N310   1.358       .  A
C309        N314   1.357       .  A
C309        C654   1.483       .  S
N310        C311   1.359       .  A
C311        N312   1.360       .  A
C311        C885   1.484       .  S
N312        C313   1.360       .  A
C313        N314   1.358       .  A
C313        C632   1.483       .  S
C315        N316   1.359       .  A
C315        N320   1.360       .  A
C315        C852   1.482       .  S
N316        C317   1.358       .  A
C317        N318   1.356       .  A
C317        C588   1.479       .  S
N318        C319   1.356       .  A
C319        N320   1.358       .  A
C319        C610   1.480       .  S
C321        N322   1.359       .  A
C321        N326   1.359       .  A
C321        C940   1.479       .  S
N322        C323   1.358       .  A
C323        N324   1.356       .  A
C323        C555   1.478       .  S
N324        C325   1.356       .  A
C325        N326   1.357       .  A
C325        C544   1.478       .  S
C327        N345   1.349       .  A
C327        C364   1.463       .  S
C327        C621   1.477       .  S
N328        N345   1.322       .  A
N328        N350   1.317       .  A
N328       Co365   2.075       .  S
C329        N354   1.339       .  A
C329        C367   1.460       .  S
C329        H374   1.081       .  S
H330        C371   1.081       .  S
C331        N355   1.343       .  A
C331        C335   1.464       .  S
C331        H360   1.081       .  S
Co332       N350   2.081       .  S
Co332       N340   2.076       .  S
Co332       N372   2.077       .  S
Co332       N348   2.084       .  S
Co332      Cl376   2.450       .  S
N333        C371   1.342       .  A
N333        N340   1.320       .  A
N333       Co334   2.091       .  S
Co334       N337   2.075       .  S
Co334       N354   2.076       .  S
Co334       N341   2.091       .  S
Co334      Cl376   2.450       .  S
C335        N373   1.349       .  A
C335        C522   1.478       .  S
N336        N343   1.321       .  A
N336        N366   1.320       .  A
N336       Co369   2.070       .  S
N337        N355   1.318       .  A
N337        N373   1.322       .  A
N338        C367   1.350       .  A
N338        N348   1.325       .  A
H339        C364   1.081       .  S
N340        N361   1.321       .  A
N341        N359   1.320       .  A
N341        N346   1.325       .  A
C342        N346   1.352       .  A
C342        C370   1.455       .  S
C342        C533   1.471       .  S
N343        C358   1.345       .  A
N343       Co365   2.099       .  S
C344        N372   1.337       .  A
C344        C347   1.458       .  S
C344        H378   1.081       .  S
C347        N368   1.353       .  A
C347        C676   1.478       .  S
N348        N354   1.318       .  A
N349        C375   1.339       .  A
N349        N351   1.317       .  A
N349       Co365   2.076       .  S
N350        C364   1.341       .  A
N351        N379   1.323       .  A
N351       Co369   2.077       .  S
H352        C375   1.081       .  S
H353        C370   1.081       .  S
N355       Co369   2.084       .  S
N356        N368   1.326       .  A
N356        N372   1.321       .  A
N356       Co365   2.098       .  S
C357        N361   1.348       .  A
C357        C371   1.463       .  S
C357        C753   1.475       .  S
C358        C377   1.466       .  S
C358        H362   1.081       .  S
N359        C370   1.335       .  A
N359       Co369   2.069       .  S
C363        N379   1.350       .  A
C363        C375   1.462       .  S
C363        C599   1.476       .  S
Co365      Cl376   2.448       .  S
N366        C377   1.346       .  A
C367        C742   1.476       .  S
Co369      Cl376   2.446       .  S
C377        C500   1.475       .  S
C380        N381   1.360       .  A
C380        N385   1.360       .  A
C380        C478   1.486       .  S
N381        C382   1.360       .  A
C382        N383   1.359       .  A
C382        C511   1.484       .  S
N383        C384   1.358       .  A
C384        N385   1.359       .  A
C384        C863   1.485       .  S
C386        N387   1.362       .  A
C386        N391   1.362       .  A
C386        C962   1.487       .  S
N387        C388   1.360       .  A
C388        N389   1.356       .  A
C388        C445   1.486       .  S
N389        C390   1.357       .  A
C390        N391   1.360       .  A
C390        C489   1.484       .  S
C392        N410   1.351       .  A
C392        C429   1.456       .  S
C392        C775   1.471       .  S
N393        N410   1.325   1_455  A
N393        N415   1.321       .  A
N393       Co430   2.093       .  S
C394        N419   1.343       .  A
C394        C432   1.464       .  S
C394        H439   1.081       .  S
H395        C436   1.081       .  S
C396        N420   1.336   1_655  A
C396        C400   1.458   1_565  S
C396        H425   1.081       .  S
Co397       N415   2.074       .  S
Co397       N405   2.081       .  S
Co397       N437   2.083       .  S
Co397       N413   2.073       .  S
Co397      Cl441   2.453       .  S
N398        C436   1.340   1_455  A
N398        N405   1.318   1_545  A
N398       Co399   2.081       .  S
Co399       N402   2.091       .  S
Co399       N419   2.091       .  S
Co399       N406   2.079       .  S
Co399      Cl441   2.447   1_545  S
C400        N438   1.352       .  A
C400        C566   1.474       .  S
N401        N408   1.318       .  A
N401        N431   1.326   1_455  A
N401       Co434   2.085       .  S
N402        N420   1.320   1_545  A
N402        N438   1.325   1_455  A
N403        C432   1.347       .  A
N403        N413   1.320   1_545  A
H404        C429   1.081       .  S
N405        N426   1.324   1_465  A
N406        N424   1.318   1_545  A
N406        N411   1.322       .  A
C407        N411   1.350       .  A
C407        C435   1.462   1_545  S
C407        C577   1.476       .  S
N408        C423   1.339   1_455  A
N408       Co430   2.076       .  S
C409        N437   1.343       .  A
C409        C412   1.464       .  S
C409        H443   1.081       .  S
C412        N433   1.349       .  A
C412        C643   1.478       .  S
N413        N419   1.321   1_565  A
N414        C440   1.344       .  A
N414        N416   1.320       .  A
N414       Co430   2.097       .  S
N415        C429   1.337   1_455  A
N416        N444   1.323       .  A
N416       Co434   2.078       .  S
H417        C440   1.081       .  S
H418        C435   1.081       .  S
N420       Co434   2.074       .  S
N421        N433   1.322       .  A
N421        N437   1.318       .  A
N421       Co430   2.078       .  S
C422        N426   1.350       .  A
C422        C436   1.462       .  S
C422        C709   1.477       .  S
C423        C442   1.460       .  S
C423        H427   1.081       .  S
N424        C435   1.341       .  A
N424       Co434   2.079       .  S
C428        N444   1.349       .  A
C428        C440   1.465       .  S
C428        C456   1.480       .  S
Co430      Cl441   2.445       .  S
N431        C442   1.352       .  A
C432        C687   1.472       .  S
Co434      Cl441   2.453       .  S
C442        C467   1.478       .  S
C445        C446   1.408       .  A
C445        C450   1.410       .  A
C446        H459   1.083       .  S
C446        C447   1.400       .  A
C447        H460   1.083       .  S
C447        C448   1.400       .  A
C448        C449   1.399       .  A
C448        C451   1.442       .  S
C449        H461   1.084       .  S
C449        C450   1.398       .  A
C450        H462   1.083       .  S
C451        C452   1.207       .  T
C452        C453   1.442       .  S
C453        C454   1.401       .  A
C453        C458   1.399       .  A
C454        H463   1.083       .  S
C454        C455   1.401       .  A
C455        H464   1.082       .  S
C455        C456   1.406       .  A
C456        C457   1.407       .  A
C457        H465   1.083       .  S
C457        C458   1.398       .  A
C458        H466   1.084       .  S
C467        C468   1.406       .  A
C467        C472   1.406       .  A
C468        H481   1.083       .  S
C468        C469   1.400       .  A
C469        H482   1.083       .  S
C469        C470   1.401       .  A
C470        C471   1.400       .  A
C470        C473   1.441       .  S
C471        H483   1.084       .  S
C471        C472   1.398       .  A
C472        H484   1.082       .  S
C473        C474   1.207       .  T
C474        C475   1.442       .  S
C475        C476   1.400       .  A
C475        C480   1.399       .  A
C476        H485   1.083       .  S
C476        C477   1.400       .  A
C477        H486   1.083       .  S
C477        C478   1.409       .  A
C478        C479   1.408       .  A
C479        H487   1.083       .  S
C479        C480   1.398       .  A
C480        H488   1.084       .  S
C489        C490   1.408       .  A
C489        C494   1.408       .  A
C490        H503   1.083       .  S
C490        C491   1.395       .  A
C491        H504   1.084       .  S
C491        C492   1.397       .  A
C492        C493   1.401       .  A
C492        C495   1.439       .  S
C493        H505   1.083       .  S
C493        C494   1.402       .  A
C494        H506   1.083       .  S
C495        C496   1.206       .  T
C496        C497   1.439       .  S
C497        C498   1.398       .  A
C497        C502   1.402       .  A
C498        H507   1.084       .  S
C498        C499   1.396       .  A
C499        H508   1.083       .  S
C499        C500   1.407       .  A
C500        C501   1.404       .  A
C501        H509   1.082       .  S
C501        C502   1.400       .  A
C502        H510   1.083       .  S
C511        C512   1.408       .  A
C511        C516   1.409       .  A
C512        H525   1.083       .  S
C512        C513   1.399       .  A
C513        H526   1.083       .  S
C513        C514   1.400       .  A
C514        C515   1.399       .  A
C514        C517   1.440       .  S
C515        H527   1.084       .  S
C515        C516   1.398       .  A
C516        H528   1.083       .  S
C517        C518   1.206       .  T
C518        C519   1.440       .  S
C519        C520   1.401       .  A
C519        C524   1.399       .  A
C520        H529   1.083       .  S
C520        C521   1.401       .  A
C521        H530   1.082       .  S
C521        C522   1.406       .  A
C522        C523   1.406       .  A
C523        H531   1.083       .  S
C523        C524   1.396       .  A
C524        H532   1.084       .  S
C533        C534   1.406       .  A
C533        C538   1.404       .  A
C534        H547   1.082       .  S
C534        C535   1.394       .  A
C535        H548   1.084       .  S
C535        C536   1.397       .  A
C536        C537   1.400       .  A
C536        C539   1.433       .  S
C537        H549   1.083       .  S
C537        C538   1.398       .  A
C538        H550   1.083       .  S
C539        C540   1.202       .  T
C540        C541   1.433       .  S
C541        C542   1.397       .  A
C541        C546   1.399       .  A
C542        H551   1.084       .  S
C542        C543   1.394       .  A
C543        H552   1.083       .  S
C543        C544   1.408       .  A
C544        C545   1.407       .  A
C545        H553   1.083       .  S
C545        C546   1.397       .  A
C546        H554   1.084       .  S
C555        C556   1.407       .  A
C555        C560   1.408       .  A
C556        H569   1.083       .  S
C556        C557   1.397       .  A
C557        H570   1.084       .  S
C557        C558   1.399       .  A
C558        C559   1.397       .  A
C558        C561   1.433       .  S
C559        H571   1.084       .  S
C559        C560   1.395       .  A
C560        H572   1.083       .  S
C561        C562   1.202       .  T
C562        C563   1.433       .  S
C563        C564   1.400       .  A
C563        C568   1.397       .  A
C564        H573   1.083       .  S
C564        C565   1.398       .  A
C565        H574   1.083       .  S
C565        C566   1.405       .  A
C566        C567   1.406       .  A
C567        H575   1.081   1_545  S
C567        C568   1.394       .  A
C568        H576   1.084       .  S
C577        C578   1.405       .  A
C577        C582   1.407       .  A
C578        H591   1.083       .  S
C578        C579   1.394       .  A
C579        H592   1.084       .  S
C579        C580   1.398       .  A
C580        C581   1.400       .  A
C580        C583   1.436       .  S
C581        H593   1.083       .  S
C581        C582   1.400       .  A
C582        H594   1.082       .  S
C583        C584   1.204       .  T
C584        C585   1.436       .  S
C585        C586   1.398       .  A
C585        C590   1.399       .  A
C586        H595   1.084       .  S
C586        C587   1.397       .  A
C587        H596   1.083       .  S
C587        C588   1.408       .  A
C588        C589   1.406       .  A
C589        H597   1.083       .  S
C589        C590   1.397       .  A
C590        H598   1.084       .  S
C599        C600   1.407       .  A
C599        C604   1.405       .  A
C600        H613   1.083       .  S
C600        C601   1.398       .  A
C601        H614   1.083       .  S
C601        C602   1.399       .  A
C602        C603   1.398       .  A
C602        C605   1.435       .  S
C603        H615   1.084       .  S
C603        C604   1.395       .  A
C604        H616   1.081       .  S
C605        C606   1.203       .  T
C606        C607   1.435       .  S
C607        C608   1.400       .  A
C607        C612   1.397       .  A
C608        H617   1.083       .  S
C608        C609   1.399       .  A
C609        H618   1.083       .  S
C609        C610   1.408       .  A
C610        C611   1.408       .  A
C611        H619   1.083       .  S
C611        C612   1.394       .  A
C612        H620   1.084       .  S
C621        C622   1.406       .  A
C621        C626   1.407       .  A
C622        H635   1.083       .  S
C622        C623   1.395       .  A
C623        H636   1.084       .  S
C623        C624   1.399       .  A
C624        C625   1.400       .  A
C624        C627   1.438       .  S
C625        H637   1.083       .  S
C625        C626   1.400       .  A
C626        H638   1.082       .  S
C627        C628   1.205       .  T
C628        C629   1.438       .  S
C629        C630   1.398       .  A
C629        C634   1.400       .  A
C630        H639   1.084       .  S
C630        C631   1.397       .  A
C631        H640   1.083       .  S
C631        C632   1.409       .  A
C632        C633   1.408       .  A
C633        H641   1.083       .  S
C633        C634   1.399       .  A
C634        H642   1.084       .  S
C643        C644   1.407       .  A
C643        C648   1.406       .  A
C644        H657   1.082       .  S
C644        C645   1.401       .  A
C645        H658   1.083       .  S
C645        C646   1.401       .  A
C646        C647   1.398       .  A
C646        C649   1.439       .  S
C647        H659   1.084       .  S
C647        C648   1.395       .  A
C648        H660   1.083       .  S
C649        C650   1.205       .  T
C650        C651   1.439       .  S
C651        C652   1.399       .  A
C651        C656   1.399       .  A
C652        H661   1.084       .  S
C652        C653   1.398       .  A
C653        H662   1.083       .  S
C653        C654   1.409       .  A
C654        C655   1.408       .  A
C655        H663   1.083       .  S
C655        C656   1.398       .  A
C656        H664   1.084       .  S
C665        C666   1.409       .  A
C665        C670   1.406       .  A
C666        H679   1.083       .  S
C666        C667   1.395       .  A
C667        H680   1.084       .  S
C667        C668   1.397       .  A
C668        C669   1.401       .  A
C668        C671   1.438       .  S
C669        H681   1.083       .  S
C669        C670   1.400       .  A
C670        H682   1.083       .  S
C671        C672   1.205       .  T
C672        C673   1.438       .  S
C673        C674   1.398       .  A
C673        C678   1.401       .  A
C674        H683   1.084       .  S
C674        C675   1.396       .  A
C675        H684   1.082       .  S
C675        C676   1.407       .  A
C676        C677   1.406       .  A
C677        H685   1.083       .  S
C677        C678   1.400       .  A
C678        H686   1.083       .  S
C687        C688   1.405       .  A
C687        C692   1.406       .  A
C688        H701   1.082       .  S
C688        C689   1.399       .  A
C689        H702   1.083       .  S
C689        C690   1.401       .  A
C690        C691   1.396       .  A
C690        C693   1.434       .  S
C691        H703   1.084       .  S
C691        C692   1.393       .  A
C692        H704   1.083       .  S
C693        C694   1.203       .  T
C694        C695   1.434       .  S
C695        C696   1.401       .  A
C695        C700   1.395       .  A
C696        H705   1.083       .  S
C696        C697   1.400       .  A
C697        H706   1.083       .  S
C697        C698   1.407       .  A
C698        C699   1.409       .  A
C699        H707   1.083       .  S
C699        C700   1.392       .  A
C700        H708   1.084       .  S
C709        C710   1.407       .  A
C709        C714   1.405       .  A
C710        H723   1.083       .  S
C710        C711   1.399       .  A
C711        H724   1.083       .  S
C711        C712   1.399       .  A
C712        C713   1.399       .  A
C712        C715   1.438       .  S
C713        H725   1.084       .  S
C713        C714   1.397       .  A
C714        H726   1.082       .  S
C715        C716   1.205       .  T
C716        C717   1.438       .  S
C717        C718   1.400       .  A
C717        C722   1.398       .  A
C718        H727   1.083       .  S
C718        C719   1.399       .  A
C719        H728   1.083       .  S
C719        C720   1.407       .  A
C720        C721   1.409       .  A
C721        H729   1.083       .  S
C721        C722   1.396       .  A
C722        H730   1.084       .  S
C731        C732   1.409       .  A
C731        C736   1.407       .  A
C732        H745   1.083       .  S
C732        C733   1.396       .  A
C733        H746   1.084       .  S
C733        C734   1.398       .  A
C734        C735   1.400       .  A
C734        C737   1.438       .  S
C735        H747   1.083       .  S
C735        C736   1.399       .  A
C736        H748   1.083       .  S
C737        C738   1.205       .  T
C738        C739   1.438       .  S
C739        C740   1.400       .  A
C739        C744   1.399       .  A
C740        H749   1.083       .  S
C740        C741   1.399       .  A
C741        H750   1.083       .  S
C741        C742   1.406       .  A
C742        C743   1.405       .  A
C743        H751   1.082       .  S
C743        C744   1.397       .  A
C744        H752   1.084       .  S
C753        C754   1.405       .  A
C753        C758   1.406       .  A
C754        H767   1.082       .  S
C754        C755   1.399       .  A
C755        H768   1.083       .  S
C755        C756   1.400       .  A
C756        C757   1.398       .  A
C756        C759   1.436       .  S
C757        H769   1.084       .  S
C757        C758   1.395       .  A
C758        H770   1.083       .  S
C759        C760   1.204       .  T
C760        C761   1.436       .  S
C761        C762   1.400       .  A
C761        C766   1.398       .  A
C762        H771   1.084       .  S
C762        C763   1.398       .  A
C763        H772   1.083       .  S
C763        C764   1.407       .  A
C764        C765   1.408       .  A
C765        H773   1.083       .  S
C765        C766   1.396       .  A
C766        H774   1.084       .  S
C775        C776   1.405       .  A
C775        C780   1.404       .  A
C776        H789   1.083       .  S
C776        C777   1.396       .  A
C777        H790   1.084       .  S
C777        C778   1.398       .  A
C778        C779   1.401       .  A
C778        C781   1.436       .  S
C779        H791   1.083       .  S
C779        C780   1.399       .  A
C780        H792   1.083       .  S
C781        C782   1.204       .  T
C782        C783   1.436       .  S
C783        C784   1.397       .  A
C783        C788   1.400       .  A
C784        H793   1.084       .  S
C784        C785   1.395       .  A
C785        H794   1.083       .  S
C785        C786   1.408       .  A
C786        C787   1.408       .  A
C787        H795   1.083       .  S
C787        C788   1.398       .  A
C788        H796   1.083       .  S
C797        C798   1.403   1_545  A
C797        C802   1.403       .  A
C798        H811   1.083       .  S
C798        C799   1.397   1_565  A
C799        H812   1.083   1_545  S
C799        C800   1.400       .  A
C800        C801   1.402       .  A
C800        C803   1.440       .  S
C801        H813   1.083       .  S
C801        C802   1.400       .  A
C802        H814   1.083       .  S
C803        C804   1.206       .  T
C804        C805   1.440       .  S
C805        C806   1.399       .  A
C805        C810   1.399       .  A
C806        H815   1.084       .  S
C806        C807   1.398       .  A
C807        H816   1.083       .  S
C807        C808   1.408       .  A
C808        C809   1.409       .  A
C809        H817   1.083       .  S
C809        C810   1.399       .  A
C810        H818   1.084       .  S
C819        C820   1.408       .  A
C819        C824   1.408       .  A
C820        H833   1.083       .  S
C820        C821   1.397       .  A
C821        H834   1.084       .  S
C821        C822   1.398       .  A
C822        C823   1.398       .  A
C822        C825   1.435       .  S
C823        H835   1.084       .  S
C823        C824   1.397       .  A
C824        H836   1.083       .  S
C825        C826   1.203       .  T
C826        C827   1.435       .  S
C827        C828   1.401       .  A
C827        C832   1.399       .  A
C828        H837   1.083       .  S
C828        C829   1.398       .  A
C829        H838   1.083       .  S
C829        C830   1.403       .  A
C830        C831   1.403       .  A
C831        H839   1.083       .  S
C831        C832   1.395       .  A
C832        H840   1.084       .  S
C841        C842   1.404       .  A
C841        C846   1.403       .  A
C842        H855   1.083       .  S
C842        C843   1.397       .  A
C843        H856   1.083       .  S
C843        C844   1.400       .  A
C844        C845   1.400       .  A
C844        C847   1.436       .  S
C845        H857   1.083       .  S
C845        C846   1.397       .  A
C846        H858   1.083       .  S
C847        C848   1.204       .  T
C848        C849   1.437       .  S
C849        C850   1.399       .  A
C849        C854   1.398       .  A
C850        H859   1.083       .  S
C850        C851   1.398       .  A
C851        H860   1.083       .  S
C851        C852   1.409       .  A
C852        C853   1.407       .  A
C853        H861   1.083       .  S
C853        C854   1.396       .  A
C854        H862   1.084       .  S
C863        C864   1.408       .  A
C863        C868   1.408       .  A
C864        H877   1.083       .  S
C864        C865   1.400       .  A
C865        H878   1.083       .  S
C865        C866   1.400       .  A
C866        C867   1.399       .  A
C866        C869   1.442       .  S
C867        H879   1.084       .  S
C867        C868   1.399       .  A
C868        H880   1.083       .  S
C869        C870   1.207       .  T
C870        C871   1.442       .  S
C871        C872   1.401       .  A
C871        C876   1.401       .  A
C872        H881   1.083       .  S
C872        C873   1.399       .  A
C873        H882   1.083       .  S
C873        C874   1.404       .  A
C874        C875   1.404       .  A
C875        H883   1.083   1_655  S
C875        C876   1.400       .  A
C876        H884   1.083       .  S
C885        C886   1.408       .  A
C885        C890   1.408       .  A
C886        H899   1.083       .  S
C886        C887   1.399       .  A
C887        H900   1.083       .  S
C887        C888   1.400       .  A
C888        C889   1.398       .  A
C888        C891   1.440       .  S
C889        H901   1.084       .  S
C889        C890   1.398       .  A
C890        H902   1.083       .  S
C891        C892   1.206       .  T
C892        C893   1.440       .  S
C893        C894   1.400       .  A
C893        C898   1.401       .  A
C894        H903   1.083       .  S
C894        C895   1.398       .  A
C895        H904   1.083       .  S
C895        C896   1.405       .  A
C896        C897   1.404       .  A
C897        H905   1.083       .  S
C897        C898   1.399       .  A
C898        H906   1.083       .  S
C907        C908   1.408       .  A
C907        C912   1.408       .  A
C908        H921   1.083       .  S
C908        C909   1.399       .  A
C909        H922   1.083       .  S
C909        C910   1.399       .  A
C910        C911   1.399       .  A
C910        C913   1.439       .  S
C911        H923   1.084       .  S
C911        C912   1.398       .  A
C912        H924   1.083       .  S
C913        C914   1.206       .  T
C914        C915   1.439       .  S
C915        C916   1.401       .  A
C915        C920   1.401       .  A
C916        H925   1.083       .  S
C916        C917   1.398       .  A
C917        H926   1.083   1_655  S
C917        C918   1.403       .  A
C918        C919   1.404       .  A
C919        H927   1.083       .  S
C919        C920   1.398       .  A
C920        H928   1.083       .  S
C929        C930   1.403       .  A
C929        C934   1.403       .  A
C930        H943   1.083       .  S
C930        C931   1.397       .  A
C931        H944   1.083       .  S
C931        C932   1.400       .  A
C932        C933   1.400       .  A
C932        C935   1.435       .  S
C933        H945   1.083       .  S
C933        C934   1.396       .  A
C934        H946   1.083       .  S
C935        C936   1.203       .  T
C936        C937   1.435       .  S
C937        C938   1.398       .  A
C937        C942   1.398       .  A
C938        H947   1.084       .  S
C938        C939   1.396       .  A
C939        H948   1.083       .  S
C939        C940   1.408       .  A
C940        C941   1.408       .  A
C941        H949   1.083       .  S
C941        C942   1.397       .  A
C942        H950   1.084       .  S
C951        C952   1.404       .  A
C951        C956   1.405       .  A
C952        H965   1.083       .  S
C952        C953   1.401       .  A
C953        H966   1.083       .  S
C953        C954   1.402       .  A
C954        C955   1.401       .  A
C954        C957   1.444       .  S
C955        H967   1.083       .  S
C955        C956   1.399       .  A
C956        H968   1.083       .  S
C957        C958   1.209       .  T
C958        C959   1.444       .  S
C959        C960   1.400       .  A
C959        C964   1.400       .  A
C960        H969   1.083       .  S
C960        C961   1.400       .  A
C961        H970   1.083       .  S
C961        C962   1.409       .  A
C962        C963   1.408       .  A
C963        H971   1.083       .  S
C963        C964   1.400       .  A
C964        H972   1.083       .  S
C973        C974   1.408       .  A
C973        C978   1.409       .  A
C974        H987   1.083       .  S
C974        C975   1.399       .  A
C975        H988   1.084       .  S
C975        C976   1.399       .  A
C976        C977   1.398       .  A
C976        C979   1.438       .  S
C977        H989   1.084       .  S
C977        C978   1.397       .  A
C978        H990   1.083       .  S
C979        C980   1.205       .  T
C980        C981   1.438       .  S
C981        C982   1.401       .  A
C981        C986   1.400       .  A
C982        H991   1.083       .  S
C982        C983   1.397       .  A
C983        H992   1.083       .  S
C983        C984   1.403       .  A
C984        C985   1.404   1_545  A
C985        H993   1.083       .  S
C985        C986   1.397   1_565  A
C986        H994   1.083   1_545  S
C995        C996   1.409       .  A
C995       C1000   1.407       .  A
C996       H1009   1.083       .  S
C996        C997   1.396       .  A
C997       H1010   1.084       .  S
C997        C998   1.397       .  A
C998        C999   1.400       .  A
C998       C1001   1.437       .  S
C999       H1011   1.083       .  S
C999       C1000   1.399       .  A
C1000      H1012   1.083       .  S
C1001      C1002   1.204       .  T
C1002      C1003   1.437       .  S
C1003      C1004   1.398       .  A
C1003      C1008   1.400       .  A
C1004      H1013   1.084       .  S
C1004      C1005   1.395       .  A
C1005      H1014   1.083       .  S
C1005      C1006   1.406       .  A
C1006      C1007   1.406       .  A
C1007      H1015   1.082       .  S
C1007      C1008   1.400       .  A
C1008      H1016   1.083       .  S
C1017      C1018   1.406       .  A
C1017      C1022   1.406       .  A
C1018      H1031   1.083       .  S
C1018      C1019   1.400       .  A
C1019      H1032   1.083       .  S
C1019      C1020   1.401       .  A
C1020      C1021   1.402       .  A
C1020      C1023   1.446       .  S
C1021      H1033   1.083       .  S
C1021      C1022   1.402       .  A
C1022      H1034   1.083       .  S
C1023      C1024   1.210       .  T
C1024      C1025   1.446       .  S
C1025      C1026   1.401       .  A
C1025      C1030   1.400       .  A
C1026      H1035   1.083       .  S
C1026      C1027   1.402       .  A
C1027      H1036   1.083       .  S
C1027      C1028   1.409       .  A
C1028      C1029   1.409       .  A
C1029      H1037   1.083       .  S
C1029      C1030   1.400       .  A
C1030      H1038   1.084       .  S
C1039      C1040   1.409       .  A
C1039      C1044   1.407       .  A
C1040      H1053   1.083       .  S
C1040      C1041   1.395       .  A
C1041      H1054   1.084       .  S
C1041      C1042   1.397       .  A
C1042      C1043   1.401       .  A
C1042      C1045   1.437       .  S
C1043      H1055   1.083       .  S
C1043      C1044   1.400       .  A
C1044      H1056   1.083       .  S
C1045      C1046   1.204       .  T
C1046      C1047   1.437       .  S
C1047      C1048   1.398       .  A
C1047      C1052   1.401       .  A
C1048      H1057   1.084       .  S
C1048      C1049   1.395       .  A
C1049      H1058   1.083       .  S
C1049      C1050   1.406       .  A
C1050      C1051   1.405       .  A
C1051      H1059   1.082       .  S
C1051      C1052   1.399       .  A
C1052      H1060   1.083       .  S
C1061      C1062   1.404       .  A
C1061      C1066   1.405       .  A
C1062      H1075   1.083       .  S
C1062      C1063   1.399       .  A
C1063      H1076   1.083       .  S
C1063      C1064   1.401       .  A
C1064      C1065   1.401       .  A
C1064      C1067   1.441       .  S
C1065      H1077   1.083       .  S
C1065      C1066   1.399       .  A
C1066      H1078   1.083   1_545  S
C1067      C1068   1.207       .  T
C1068      C1069   1.441       .  S
C1069      C1070   1.400       .  A
C1069      C1074   1.399       .  A
C1070      H1079   1.083       .  S
C1070      C1071   1.400       .  A
C1071      H1080   1.083       .  S
C1071      C1072   1.409       .  A
C1072      C1073   1.408       .  A
C1073      H1081   1.083       .  S
C1073      C1074   1.398       .  A
C1074      H1082   1.084       .  S
C1083      C1084   1.408       .  A
C1083      C1088   1.409       .  A
C1084      H1097   1.083       .  S
C1084      C1085   1.399       .  A
C1085      H1098   1.083       .  S
C1085      C1086   1.400       .  A
C1086      C1087   1.399       .  A
C1086      C1089   1.440       .  S
C1087      H1099   1.084       .  S
C1087      C1088   1.398       .  A
C1088      H1100   1.083       .  S
C1089      C1090   1.206       .  T
C1090      C1091   1.440       .  S
C1091      C1092   1.401       .  A
C1091      C1096   1.399       .  A
C1092      H1101   1.083       .  S
C1092      C1093   1.401       .  A
C1093      H1102   1.083       .  S
C1093      C1094   1.407       .  A
C1094      C1095   1.406       .  A
C1095      H1103   1.082       .  S
C1095      C1096   1.397       .  A
C1096      H1104   1.084       .  S
C1105      C1106   1.408       .  A
C1105      C1110   1.408       .  A
C1106      H1119   1.083       .  S
C1106      C1107   1.397       .  A
C1107      H1120   1.084       .  S
C1107      C1108   1.398       .  A
C1108      C1109   1.399       .  A
C1108      C1111   1.438       .  S
C1109      H1121   1.084       .  S
C1109      C1110   1.399       .  A
C1110      H1122   1.083       .  S
C1111      C1112   1.205       .  T
C1112      C1113   1.437       .  S
C1113      C1114   1.401       .  A
C1113      C1118   1.400       .  A
C1114      H1123   1.083       .  S
C1114      C1115   1.397       .  A
C1115      H1124   1.083       .  S
C1115      C1116   1.402       .  A
C1116      C1117   1.402       .  A
C1117      H1125   1.083       .  S
C1117      C1118   1.397       .  A
C1118      H1126   1.083       .  S
C1127      C1128   1.407       .  A
C1127      C1132   1.406       .  A
C1128      H1141   1.083       .  S
C1128      C1129   1.395       .  A
C1129      H1142   1.084       .  S
C1129      C1130   1.397       .  A
C1130      C1131   1.402       .  A
C1130      C1133   1.439       .  S
C1131      H1143   1.083       .  S
C1131      C1132   1.401       .  A
C1132      H1144   1.083       .  S
C1133      C1134   1.205       .  T
C1134      C1135   1.439       .  S
C1135      C1136   1.398       .  A
C1135      C1140   1.401       .  A
C1136      H1145   1.084       .  S
C1136      C1137   1.396       .  A
C1137      H1146   1.083       .  S
C1137      C1138   1.407       .  A
C1138      C1139   1.406       .  A
C1139      H1147   1.082       .  S
C1139      C1140   1.401       .  A
C1140      H1148   1.083       .  S
C1149      C1150   1.405       .  A
C1149      C1154   1.407       .  A
C1150      H1163   1.082       .  S
C1150      C1151   1.397       .  A
C1151      H1164   1.084       .  S
C1151      C1152   1.399       .  A
C1152      C1153   1.399       .  A
C1152      C1155   1.437       .  S
C1153      H1165   1.083       .  S
C1153      C1154   1.398       .  A
C1154      H1166   1.083       .  S
C1155      C1156   1.204       .  T
C1156      C1157   1.437       .  S
C1157      C1158   1.398       .  A
C1157      C1162   1.400       .  A
C1158      H1167   1.084       .  S
C1158      C1159   1.397       .  A
C1159      H1168   1.083       .  S
C1159      C1160   1.409       .  A
C1160      C1161   1.406       .  A
C1161      H1169   1.083       .  S
C1161      C1162   1.398       .  A
C1162      H1170   1.084       .  S
C1171      C1172   1.406       .  A
C1171      C1176   1.406       .  A
C1172      H1185   1.081       .  S
C1172      C1173   1.395       .  A
C1173      H1186   1.084       .  S
C1173      C1174   1.397       .  A
C1174      C1175   1.401       .  A
C1174      C1177   1.438       .  S
C1175      H1187   1.083       .  S
C1175      C1176   1.401       .  A
C1176      H1188   1.083       .  S
C1177      C1178   1.205       .  T
C1178      C1179   1.438       .  S
C1179      C1180   1.396       .  A
C1179      C1184   1.401       .  A
C1180      H1189   1.084       .  S
C1180      C1181   1.395       .  A
C1181      H1190   1.083       .  S
C1181      C1182   1.410       .  A
C1182      C1183   1.407       .  A
C1183      H1191   1.083       .  S
C1183      C1184   1.401       .  A
C1184      H1192   1.083       .  S
C1193      C1194   1.407       .  A
C1193      C1198   1.405       .  A
C1194      H1207   1.083       .  S
C1194      C1195   1.399       .  A
C1195      H1208   1.083       .  S
C1195      C1196   1.399       .  A
C1196      C1197   1.399       .  A
C1196      C1199   1.438       .  S
C1197      H1209   1.084       .  S
C1197      C1198   1.397       .  A
C1198      H1210   1.082       .  S
C1199      C1200   1.205       .  T
C1200      C1201   1.439       .  S
C1201      C1202   1.400       .  A
C1201      C1206   1.398       .  A
C1202      H1211   1.083       .  S
C1202      C1203   1.399       .  A
C1203      H1212   1.083       .  S
C1203      C1204   1.408       .  A
C1204      C1205   1.409       .  A
C1205      H1213   1.083       .  S
C1205      C1206   1.397       .  A
C1206      H1214   1.084       .  S
C1215      C1216   1.406       .  A
C1215      C1220   1.405       .  A
C1216      H1229   1.083       .  S
C1216      C1217   1.394       .  A
C1217      H1230   1.084       .  S
C1217      C1218   1.396       .  A
C1218      C1219   1.401       .  A
C1218      C1221   1.436       .  S
C1219      H1231   1.083       .  S
C1219      C1220   1.400       .  A
C1220      H1232   1.082       .  S
C1221      C1222   1.204       .  T
C1222      C1223   1.436       .  S
C1223      C1224   1.396       .  A
C1223      C1228   1.401       .  A
C1224      H1233   1.084       .  S
C1224      C1225   1.393       .  A
C1225      H1234   1.083       .  S
C1225      C1226   1.409       .  A
C1226      C1227   1.408       .  A
C1227      H1235   1.083       .  S
C1227      C1228   1.401       .  A
C1228      H1236   1.083       .  S
C1237      C1238   1.408       .  A
C1237      C1242   1.408       .  A
C1238      H1251   1.083       .  S
C1238      C1239   1.397       .  A
C1239      H1252   1.084       .  S
C1239      C1240   1.398       .  A
C1240      C1241   1.398       .  A
C1240      C1243   1.435       .  S
C1241      H1253   1.084       .  S
C1241      C1242   1.396       .  A
C1242      H1254   1.083       .  S
C1243      C1244   1.203       .  T
C1244      C1245   1.435       .  S
C1245      C1246   1.400       .  A
C1245      C1250   1.400       .  A
C1246      H1255   1.084       .  S
C1246      C1247   1.396   1_655  A
C1247      H1256   1.083       .  S
C1247      C1248   1.403   1_455  A
C1248      C1249   1.403       .  A
C1249      H1257   1.083       .  S
C1249      C1250   1.397       .  A
C1250      H1258   1.083       .  S
C1259      C1260   1.407       .  A
C1259      C1264   1.405       .  A
C1260      H1273   1.082   1_655  S
C1260      C1261   1.396       .  A
C1261      H1274   1.084       .  S
C1261      C1262   1.398       .  A
C1262      C1263   1.400       .  A
C1262      C1265   1.436       .  S
C1263      H1275   1.083       .  S
C1263      C1264   1.398       .  A
C1264      H1276   1.083       .  S
C1265      C1266   1.204       .  T
C1266      C1267   1.436       .  S
C1267      C1268   1.397       .  A
C1267      C1272   1.400       .  A
C1268      H1277   1.084       .  S
C1268      C1269   1.395       .  A
C1269      H1278   1.083       .  S
C1269      C1270   1.408       .  A
C1270      C1271   1.407       .  A
C1271      H1279   1.083       .  S
C1271      C1272   1.399       .  A
C1272      H1280   1.083       .  S
C1281      C1282   1.408       .  A
C1281      C1286   1.407       .  A
C1282      H1295   1.083       .  S
C1282      C1283   1.394       .  A
C1283      H1296   1.084       .  S
C1283      C1284   1.396       .  A
C1284      C1285   1.400       .  A
C1284      C1287   1.433       .  S
C1285      H1297   1.084       .  S
C1285      C1286   1.398       .  A
C1286      H1298   1.083       .  S
C1287      C1288   1.202       .  T
C1288      C1289   1.433       .  S
C1289      C1290   1.400       .  A
C1289      C1294   1.396       .  A
C1290      H1299   1.083       .  S
C1290      C1291   1.399       .  A
C1291      H1300   1.083       .  S
C1291      C1292   1.405       .  A
C1292      C1293   1.406       .  A
C1293      H1301   1.081       .  S
C1293      C1294   1.393       .  A
C1294      H1302   1.084       .  S
C1303      C1304   1.409       .  A
C1303      C1308   1.408       .  A
C1304      H1317   1.083       .  S
C1304      C1305   1.398       .  A
C1305      H1318   1.084       .  S
C1305      C1306   1.399       .  A
C1306      C1307   1.400       .  A
C1306      C1309   1.440       .  S
C1307      H1319   1.083       .  S
C1307      C1308   1.399       .  A
C1308      H1320   1.083       .  S
C1309      C1310   1.206       .  T
C1310      C1311   1.440       .  S
C1311      C1312   1.400       .  A
C1311      C1316   1.402       .  A
C1312      H1321   1.083       .  S
C1312      C1313   1.397       .  A
C1313      H1322   1.083       .  S
C1313      C1314   1.404       .  A
C1314      C1315   1.405       .  A
C1315      H1323   1.083       .  S
C1315      C1316   1.400       .  A
C1316      H1324   1.083       .  S
C1325      C1326   1.405       .  A
C1325      C1330   1.407       .  A
C1326      H1339   1.083       .  S
C1326      C1327   1.395       .  A
C1327      H1340   1.084       .  S
C1327      C1328   1.398       .  A
C1328      C1329   1.401       .  A
C1328      C1331   1.440       .  S
C1329      H1341   1.083       .  S
C1329      C1330   1.401       .  A
C1330      H1342   1.082       .  S
C1331      C1332   1.206       .  T
C1332      C1333   1.440       .  S
C1333      C1334   1.400       .  A
C1333      C1338   1.399       .  A
C1334      H1343   1.083       .  S
C1334      C1335   1.399       .  A
C1335      H1344   1.083       .  S
C1335      C1336   1.408       .  A
C1336      C1337   1.408       .  A
C1337      H1345   1.083       .  S
C1337      C1338   1.397       .  A
C1338      H1346   1.084       .  S
C1347      C1348   1.406       .  A
C1347      C1352   1.406       .  A
C1348      H1361   1.083       .  S
C1348      C1349   1.396       .  A
C1349      H1362   1.084       .  S
C1349      C1350   1.399       .  A
C1350      C1351   1.401       .  A
C1350      C1353   1.439       .  S
C1351      H1363   1.083       .  S
C1351      C1352   1.400       .  A
C1352      H1364   1.082       .  S
C1353      C1354   1.206       .  T
C1354      C1355   1.440       .  S
C1355      C1356   1.398       .  A
C1355      C1360   1.400       .  A
C1356      H1365   1.084       .  S
C1356      C1357   1.397       .  A
C1357      H1366   1.083       .  S
C1357      C1358   1.409       .  A
C1358      C1359   1.408       .  A
C1359      H1367   1.083       .  S
C1359      C1360   1.400       .  A
C1360      H1368   1.083       .  S
C1369      C1370   1.408       .  A
C1369      C1374   1.408       .  A
C1370      H1383   1.083       .  S
C1370      C1371   1.399       .  A
C1371      H1384   1.084       .  S
C1371      C1372   1.400       .  A
C1372      C1373   1.399       .  A
C1372      C1375   1.440       .  S
C1373      H1385   1.084       .  S
C1373      C1374   1.398       .  A
C1374      H1386   1.083       .  S
C1375      C1376   1.206       .  T
C1376      C1377   1.440       .  S
C1377      C1378   1.401       .  A
C1377      C1382   1.400       .  A
C1378      H1387   1.083       .  S
C1378      C1379   1.398       .  A
C1379      H1388   1.083       .  S
C1379      C1380   1.405       .  A
C1380      C1381   1.405       .  A
C1381      H1389   1.083       .  S
C1381      C1382   1.398       .  A
C1382      H1390   1.083       .  S
C1391      C1392   1.407       .  A
C1391      C1396   1.407       .  A
C1392      H1405   1.081       .  S
C1392      C1393   1.396       .  A
C1393      H1406   1.084       .  S
C1393      C1394   1.398       .  A
C1394      C1395   1.401       .  A
C1394      C1397   1.439       .  S
C1395      H1407   1.083       .  S
C1395      C1396   1.401       .  A
C1396      H1408   1.083       .  S
C1397      C1398   1.206       .  T
C1398      C1399   1.439       .  S
C1399      C1400   1.397       .  A
C1399      C1404   1.401       .  A
C1400      H1409   1.084       .  S
C1400      C1401   1.396       .  A
C1401      H1410   1.083       .  S
C1401      C1402   1.409       .  A
C1402      C1403   1.408       .  A
C1403      H1411   1.083       .  S
C1403      C1404   1.401       .  A
C1404      H1412   1.083       .  S
C1413      C1414   1.409       .  A
C1413      C1418   1.407       .  A
C1414      H1427   1.083       .  S
C1414      C1415   1.396       .  A
C1415      H1428   1.084       .  S
C1415      C1416   1.397       .  A
C1416      C1417   1.400       .  A
C1416      C1419   1.438       .  S
C1417      H1429   1.083       .  S
C1417      C1418   1.399       .  A
C1418      H1430   1.083       .  S
C1419      C1420   1.205       .  T
C1420      C1421   1.438       .  S
C1421      C1422   1.400       .  A
C1421      C1426   1.398       .  A
C1422      H1431   1.083       .  S
C1422      C1423   1.400       .  A
C1423      H1432   1.082       .  S
C1423      C1424   1.406       .  A
C1424      C1425   1.406       .  A
C1425      H1433   1.083       .  S
C1425      C1426   1.395       .  A
C1426      H1434   1.084       .  S
C1435      C1436   1.404       .  A
C1435      C1440   1.403   1_655  A
C1436      H1449   1.083       .  S
C1436      C1437   1.399       .  A
C1437      H1450   1.083       .  S
C1437      C1438   1.401       .  A
C1438      C1439   1.400       .  A
C1438      C1441   1.437       .  S
C1439      H1451   1.084   1_655  S
C1439      C1440   1.396   1_655  A
C1440      H1452   1.083       .  S
C1441      C1442   1.205       .  T
C1442      C1443   1.438       .  S
C1443      C1444   1.399       .  A
C1443      C1448   1.399       .  A
C1444      H1453   1.084       .  S
C1444      C1445   1.397       .  A
C1445      H1454   1.083       .  S
C1445      C1446   1.408       .  A
C1446      C1447   1.408       .  A
C1447      H1455   1.083       .  S
C1447      C1448   1.399       .  A
C1448      H1456   1.084       .  S
C1457      C1458   1.407       .  A
C1457      C1462   1.409       .  A
C1458      H1471   1.083       .  S
C1458      C1459   1.399       .  A
C1459      H1472   1.083       .  S
C1459      C1460   1.400       .  A
C1460      C1461   1.397       .  A
C1460      C1463   1.436       .  S
C1461      H1473   1.084       .  S
C1461      C1462   1.395       .  A
C1462      H1474   1.083       .  S
C1463      C1464   1.204       .  T
C1464      C1465   1.436       .  S
C1465      C1466   1.400       .  A
C1465      C1470   1.397       .  A
C1466      H1475   1.083       .  S
C1466      C1467   1.399       .  A
C1467      H1476   1.083       .  S
C1467      C1468   1.406       .  A
C1468      C1469   1.407       .  A
C1469      H1477   1.081       .  S
C1469      C1470   1.395       .  A
C1470      H1478   1.084       .  S
C1479      C1480   1.408       .  A
C1479      C1484   1.407       .  A
C1480      H1493   1.083       .  S
C1480      C1481   1.396       .  A
C1481      H1494   1.084       .  S
C1481      C1482   1.398       .  A
C1482      C1483   1.400       .  A
C1482      C1485   1.437       .  S
C1483      H1495   1.083       .  S
C1483      C1484   1.399       .  A
C1484      H1496   1.083       .  S
C1485      C1486   1.204       .  T
C1486      C1487   1.437       .  S
C1487      C1488   1.398       .  A
C1487      C1492   1.400       .  A
C1488      H1497   1.084       .  S
C1488      C1489   1.396       .  A
C1489      H1498   1.083   1_655  S
C1489      C1490   1.406       .  A
C1490      C1491   1.406       .  A
C1491      H1499   1.082       .  S
C1491      C1492   1.399       .  A
C1492      H1500   1.084       .  S
