geometry optimzed in LAMMPS
_audit_creation_date              2020-12-01 
_audit_creation_method            'lammps2cif' 
_symmetry_space_group_name_H-M    'P1' 
_symmetry_Int_Tables_number       1 
_symmetry_cell_setting            triclinic 
loop_ 
_symmetry_equiv_pos_as_xyz 
  x,y,z 
_cell_length_a                    38.90212469 
_cell_length_b                    39.068881233501614 
_cell_length_c                    39.042395702789584 
_cell_angle_alpha                 90.02251788507347 
_cell_angle_beta                  89.99560126317368 
_cell_angle_gamma                 90.36966798024353 
loop_ 
_atom_site_label 
_atom_site_type_symbol 
_atom_site_fract_x 
_atom_site_fract_y 
_atom_site_fract_z 
_atom_site_charge 
N1          N  0.03679571  0.43719831  0.03830100    -0.04300
N2          N  0.05876846  0.41257566  0.04562444    -0.56500
N3          N  0.46223662  0.45862435  0.06550579    -0.04000
N4          N  0.43994590  0.45115456  0.08992642    -0.58600
N5          N  0.46241433  0.43423730  0.04220436    -0.03600
N6          N  0.43999378  0.40991639  0.05045455    -0.56400
N7          N  0.03723154  0.46081124  0.06237445    -0.03300
N8          N  0.05929747  0.45229900  0.08661481    -0.58900
C9          C  0.07282666  0.42210160  0.07597128     0.97800
C10         C  0.42597025  0.42069119  0.08044782     0.97600
N11         N  0.45662684  0.06442379  0.03897835    -0.04500
N12         N  0.43414373  0.08845843  0.04648101    -0.57000
N13         N  0.03411444  0.04355232  0.06684696    -0.02600
N14         N  0.05759115  0.05074219  0.09046221    -0.58300
N15         N  0.03388989  0.06752436  0.04316978    -0.04600
N16         N  0.05684005  0.09158305  0.05053952    -0.57300
N17         N  0.45651940  0.04089358  0.06318138    -0.02300
N18         N  0.43382624  0.04852967  0.08738839    -0.58400
Mn19       Mn  0.99821432  0.50217086  0.06366216     1.18400
C20         C  0.41969631  0.07826534  0.07654354     0.99900
C21         C  0.07174522  0.08089048  0.08006816     1.00600
N22         N  0.45748283  0.43584954  0.45723648    -0.04600
N23         N  0.43526625  0.41144724  0.44823994    -0.60900
N24         N  0.03723439  0.45755194  0.43342170    -0.03400
N25         N  0.06046836  0.44998680  0.41002846    -0.61600
N26         N  0.03690985  0.43413555  0.45761098    -0.04100
N27         N  0.06020994  0.41047307  0.45125757    -0.61100
N28         N  0.45840218  0.46006481  0.43378379    -0.03000
N29         N  0.43672569  0.45265386  0.40882827    -0.61800
Mn30       Mn  0.49651613  0.43562954  0.49898245     1.10700
C31         C  0.42200751  0.42240769  0.41797206     1.01100
C32         C  0.07477762  0.42044213  0.42125517     1.01200
N33         N  0.03716886  0.06090722  0.45906395    -0.04100
N34         N  0.06024822  0.08440737  0.45043819    -0.59500
N35         N  0.46046865  0.04640579  0.43455467    -0.03400
N36         N  0.43887608  0.05309468  0.40953909    -0.56200
N37         N  0.46032307  0.07125658  0.45733405    -0.04700
N38         N  0.43820772  0.09530076  0.44793834    -0.59000
N39         N  0.03619653  0.03654949  0.43584887    -0.03700
N40         N  0.05833084  0.04297246  0.41112750    -0.56200
Mn41       Mn  0.99479908  0.06770810  0.00157896     1.20200
Mn42       Mn  0.49881890  0.00535403  0.43475459     1.10100
Cl43       Cl  0.99334240  0.00203774  0.00167415    -0.84200
C44         C  0.07353435  0.07280618  0.42040300     0.98100
C45         C  0.42469694  0.08350973  0.41793658     0.97900
C46         C  0.39745305  0.40179259  0.39449983    -0.00700
C47         C  0.40126530  0.39882079  0.10267703    -0.00700
N48         N  0.30187057  0.37839903  0.00552940    -0.34800
N49         N  0.25183094  0.38438962  0.45290095    -0.55400
N50         N  0.19927858  0.37352959  0.00203755    -0.34800
N51         N  0.24881901  0.36744350  0.05711024    -0.55400
C52         C  0.32104299  0.37919154  0.47918052     0.28800
C53         C  0.31914927  0.36519669  0.03230411     0.28800
C54         C  0.18167604  0.36790218  0.47519482     0.28800
C55         C  0.18003783  0.36187858  0.02845771     0.28800
C56         C  0.27910035  0.39786156  0.43616054     0.37400
C57         C  0.22400261  0.38994516  0.43314692     0.37400
C58         C  0.27613578  0.37386511  0.07759552     0.37400
C59         C  0.22028022  0.37327320  0.07593662     0.37400
C60         C  0.35166628  0.36302233  0.48736433    -0.20100
C61         C  0.34975753  0.35112851  0.02125448    -0.20100
C62         C  0.15215824  0.34943000  0.48323423    -0.20100
C63         C  0.15100479  0.34526474  0.01607815    -0.20100
C64         C  0.26871023  0.41149837  0.40511975    -0.21200
C65         C  0.23363500  0.40629765  0.40310787    -0.21200
C66         C  0.26499697  0.38318820  0.10997191    -0.21200
C67         C  0.22946835  0.38285713  0.10891118    -0.21200
C68         C  0.31329183  0.39499395  0.44772744    -0.16500
C69         C  0.31069520  0.37092910  0.06682600    -0.16500
C70         C  0.18637141  0.36927843  0.06331524    -0.16500
C71         C  0.19042293  0.37941413  0.44193909    -0.16500
H72         H  0.37369430  0.35817345  0.47136714     0.16400
H73         H  0.36948419  0.33936172  0.03678490     0.16400
H74         H  0.13306135  0.33942467  0.46565561     0.16400
H75         H  0.13043751  0.33376741  0.03090016     0.16400
H76         H  0.28477439  0.42299841  0.38562442     0.14700
H77         H  0.21716284  0.41367434  0.38205545     0.14700
H78         H  0.28073364  0.38988496  0.13186124     0.14700
H79         H  0.21244954  0.38919431  0.12987377     0.14700
H80         H  0.27963987  0.39306435  0.00687363     0.27900
H81         H  0.22081810  0.38932603  0.00398822     0.27900
C82         C  0.39640450  0.10102455  0.39652660    -0.00700
N83         N  0.36161768  0.49846254  0.29836516    -0.34800
N84         N  0.35650490  0.44287961  0.24918529    -0.55400
N85         N  0.36995865  0.49440343  0.19695494    -0.34800
N86         N  0.36995631  0.04840296  0.24710405    -0.55400
C87         C  0.34928244  0.47194545  0.31699614     0.28800
C88         C  0.35651494  0.02456980  0.31781759     0.28800
C89         C  0.35791489  0.46726231  0.17918398     0.28800
C90         C  0.36637034  0.02126111  0.17791437     0.28800
C91         C  0.36266830  0.42466065  0.27775557     0.37400
C92         C  0.36528263  0.42260580  0.22273835     0.37400
C93         C  0.37623901  0.06779817  0.27516457     0.37400
C94         C  0.38330635  0.06534027  0.21978637     0.37400
C95         C  0.33198198  0.48411176  0.34543767    -0.20100
C96         C  0.33931519  0.01534853  0.34764836    -0.20100
C97         C  0.34646994  0.47770913  0.14734712    -0.20100
C98         C  0.35109586  0.01146168  0.14723340    -0.20100
C99         C  0.37478311  0.39238293  0.26949068    -0.21200
C100        C  0.37635538  0.39105071  0.23434330    -0.21200
C101        C  0.39292149  0.09779722  0.26550571    -0.21200
C102        C  0.39755233  0.09613979  0.23042767    -0.21200
C103        C  0.35716260  0.43725723  0.31092795    -0.16500
C104        C  0.36681715  0.05855161  0.30912263    -0.16500
C105        C  0.38071832  0.05377277  0.18537935    -0.16500
C106        C  0.36352326  0.43291821  0.18845873    -0.16500
H107        H  0.32026662  0.46917790  0.36565555     0.16400
H108        H  0.32916671  0.03229975  0.36706174     0.16400
H109        H  0.33656830  0.46169271  0.12691349     0.16400
H110        H  0.34544981  0.02658898  0.12491446     0.16400
H111        H  0.38217079  0.37214107  0.28685425     0.14700
H112        H  0.38526272  0.36966308  0.21919034     0.14700
H113        H  0.40133312  0.11849122  0.28199197     0.14700
H114        H  0.40961662  0.11551011  0.21457997     0.14700
H115        H  0.37826147  0.49657936  0.27760902     0.27900
H116        H  0.38307487  0.49339985  0.22015808     0.27900
C117        C  0.39572460  0.10160895  0.09727183    -0.00700
N118        N  0.29944175  0.13194874  0.99479700    -0.34800
N119        N  0.24756321  0.13246536  0.44212521    -0.55400
N120        N  0.19593762  0.13001854  0.99510685    -0.34800
N121        N  0.24774871  0.13769370  0.04842656    -0.55400
C122        C  0.31721352  0.14222094  0.46823340     0.28800
C123        C  0.31790645  0.14308289  0.02200449     0.28800
C124        C  0.17708182  0.13829873  0.46645946     0.28800
C125        C  0.17743529  0.14079780  0.02230254     0.28800
C126        C  0.27575555  0.12420091  0.42390130     0.37400
C127        C  0.22034461  0.12216757  0.42328228     0.37400
C128        C  0.27576253  0.13095724  0.06776138     0.37400
C129        C  0.21994574  0.13001593  0.06784520     0.37400
C130        C  0.34691856  0.15951622  0.47773718    -0.20100
C131        C  0.34779584  0.15897662  0.01074618    -0.20100
C132        C  0.14645371  0.15423411  0.47482965    -0.20100
C133        C  0.14733761  0.15599113  0.01112129    -0.20100
C134        C  0.26651184  0.10909809  0.39309669    -0.21200
C135        C  0.23121633  0.10777683  0.39271160    -0.21200
C136        C  0.26572717  0.11941092  0.09983591    -0.21200
C137        C  0.23030418  0.11882201  0.09989217    -0.21200
C138        C  0.30954656  0.13100323  0.43467483    -0.16500
C139        C  0.31006828  0.13573327  0.05660424    -0.16500
C140        C  0.18553186  0.13368811  0.05681706    -0.16500
C141        C  0.18596065  0.12657785  0.43331986    -0.16500
H142        H  0.36683687  0.16923749  0.46110827     0.16400
H143        H  0.36799029  0.17006985  0.02635744     0.16400
H144        H  0.12627816  0.16205671  0.45746680     0.16400
H145        H  0.12706773  0.16664922  0.02675686     0.16400
H146        H  0.28336689  0.09971240  0.37317986     0.14700
H147        H  0.21548244  0.09717778  0.37240827     0.14700
H148        H  0.28210394  0.11179031  0.12085667     0.14700
H149        H  0.21414753  0.11065941  0.12096117     0.14700
H150        H  0.27731989  0.11684521  0.99577578     0.27900
H151        H  0.21819266  0.11537949  0.99605393     0.27900
C152        C  0.10109038  0.39877335  0.40129707    -0.00700
N153        N  0.50700936  0.30098948  0.37983602    -0.34800
N154        N  0.45111473  0.25189540  0.38377724    -0.55400
N155        N  0.50321441  0.19968298  0.38705142    -0.34800
N156        N  0.06261541  0.24674216  0.36727389    -0.55400
C157        C  0.47930157  0.32005716  0.37171725     0.28800
C158        C  0.03722242  0.31610651  0.36540693     0.28800
C159        C  0.47471775  0.18127863  0.37941527     0.28800
C160        C  0.03344694  0.17931944  0.36216974     0.28800
C161        C  0.43430394  0.28068489  0.39292039     0.37400
C162        C  0.43194979  0.22497995  0.39467068     0.37400
C163        C  0.08314069  0.27386192  0.37385976     0.37400
C164        C  0.08175608  0.21851162  0.37218135     0.37400
C165        C  0.48989161  0.34844350  0.35296160    -0.20100
C166        C  0.02626502  0.34671462  0.35148754    -0.20100
C167        C  0.48424089  0.14976584  0.36614972    -0.20100
C168        C  0.02006860  0.15095086  0.34563623    -0.20100
C169        C  0.40353343  0.27202645  0.40879021    -0.21200
C170        C  0.40200581  0.23663633  0.40979884    -0.21200
C171        C  0.11589817  0.26298899  0.38232031    -0.21200
C172        C  0.11502429  0.22764727  0.38125631    -0.21200
C173        C  0.44614606  0.31431259  0.38546964    -0.16500
C174        C  0.07199817  0.30796792  0.37174611    -0.16500
C175        C  0.06875313  0.18505543  0.36801575    -0.16500
C176        C  0.44124671  0.19030116  0.38974622    -0.16500
H177        H  0.47473895  0.36930100  0.34328621     0.16400
H178        H  0.04208378  0.36677379  0.34044821     0.16400
H179        H  0.46853667  0.12851925  0.35793512     0.16400
H180        H  0.03418120  0.13141508  0.33199490     0.16400
H181        H  0.38410073  0.28932153  0.41827829     0.14700
H182        H  0.38128613  0.22131106  0.42032915     0.14700
H183        H  0.13793277  0.27876451  0.38877646     0.14700
H184        H  0.13625716  0.21077734  0.38681364     0.14700
H185        H  0.50716747  0.28045260  0.39681304     0.27900
H186        H  0.50410081  0.22265941  0.40051358     0.27900
C187        C  0.09824877  0.09353607  0.39755463    -0.00700
N188        N  0.12197869  0.48867315  0.19806746    -0.34800
N189        N  0.12207374  0.04561832  0.24555329    -0.55400
N190        N  0.12234285  0.48985999  0.29988204    -0.34800
N191        N  0.13421455  0.43596484  0.24941135    -0.55400
C192        C  0.12752668  0.01722838  0.17731964     0.28800
C193        C  0.13575026  0.46221983  0.18066403     0.28800
C194        C  0.13690829  0.02370564  0.31493918     0.28800
C195        C  0.13683142  0.46442569  0.31824627     0.28800
C196        C  0.10803548  0.06103151  0.21799121     0.37400
C197        C  0.11416585  0.06488981  0.27315017     0.37400
C198        C  0.12719769  0.41584791  0.22217402     0.37400
C199        C  0.12911709  0.41663555  0.27756176     0.37400
C200        C  0.14442247  0.00736291  0.14755774    -0.20100
C201        C  0.15056575  0.47390670  0.15067979    -0.20100
C202        C  0.15657137  0.01569208  0.34345556    -0.20100
C203        C  0.14959676  0.47737228  0.34869675    -0.20100
C204        C  0.09143253  0.09072535  0.22800744    -0.21200
C205        C  0.09545988  0.09324375  0.26309708    -0.21200
C206        C  0.11816161  0.38320597  0.23293509    -0.21200
C207        C  0.11950481  0.38367836  0.26830272    -0.21200
C208        C  0.11263186  0.04943150  0.18400001    -0.16500
C209        C  0.12935763  0.42740492  0.18809621    -0.16500
C210        C  0.13303118  0.42912253  0.31115964    -0.16500
C211        C  0.12446840  0.05678905  0.30688275    -0.16500
H212        H  0.15124041  0.02235628  0.12543097     0.16400
H213        H  0.16250821  0.45868416  0.13083794     0.16400
H214        H  0.16755074  0.03335953  0.36187637     0.16400
H215        H  0.16158080  0.46319756  0.36927156     0.16400
H216        H  0.07827420  0.10887360  0.21177134     0.14700
H217        H  0.08555727  0.11339935  0.27928506     0.14700
H218        H  0.11106797  0.36154279  0.21710264     0.14700
H219        H  0.11354309  0.36249586  0.28520118     0.14700
H220        H  0.10646904  0.48654769  0.21967687     0.27900
H221        H  0.10805833  0.48676160  0.27762568     0.27900
C222        C  0.10008397  0.10113460  0.09906789    -0.00700
C223        C  0.09569485  0.39821993  0.09768852    -0.00700
N224        N  0.49451896  0.29967647  0.13776198    -0.34800
N225        N  0.44073368  0.24821717  0.13935697    -0.55400
N226        N  0.49525288  0.19729743  0.13557757    -0.34800
N227        N  0.04662916  0.24781316  0.12243116    -0.55400
C228        C  0.46636892  0.31764957  0.14668561     0.28800
C229        C  0.02373887  0.31792538  0.13549805     0.28800
C230        C  0.46726844  0.17852149  0.14442966     0.28800
C231        C  0.01949625  0.17870461  0.12817005     0.28800
C232        C  0.42164783  0.27574464  0.13107608     0.37400
C233        C  0.42180541  0.22041635  0.13099627     0.37400
C234        C  0.06599203  0.27556345  0.11491308     0.37400
C235        C  0.06265880  0.22063577  0.10847688     0.37400
C236        C  0.47607083  0.34737249  0.16361646    -0.20100
C237        C  0.01518957  0.34807595  0.15221831    -0.20100
C238        C  0.47767244  0.14818384  0.15951405    -0.20100
C239        C  0.01111040  0.14805877  0.14421025    -0.20100
C240        C  0.39015424  0.26549449  0.11792566    -0.21200
C241        C  0.39022616  0.23024796  0.11790739    -0.21200
C242        C  0.09508458  0.26595478  0.09688513    -0.21200
C243        C  0.09282390  0.23098400  0.09255730    -0.21200
C244        C  0.43259490  0.30977946  0.13602369    -0.16500
C245        C  0.05730139  0.30922805  0.12432707    -0.16500
C246        C  0.05113180  0.18660052  0.11219211    -0.16500
C247        C  0.43286081  0.18648529  0.13563682    -0.16500
H248        H  0.45940792  0.36728278  0.17322170     0.16400
H249        H  0.03258854  0.36780183  0.16134214     0.16400
H250        H  0.46140340  0.12774042  0.16897515     0.16400
H251        H  0.02743938  0.12640622  0.14923464     0.16400
H252        H  0.36946599  0.28163038  0.10907140     0.14700
H253        H  0.36959342  0.21382748  0.10894157     0.14700
H254        H  0.11543659  0.28242599  0.08739369     0.14700
H255        H  0.11139098  0.21500230  0.07962830     0.14700
H256        H  0.49494635  0.27800272  0.12227013     0.27900
H257        H  0.49516750  0.21986234  0.12144725     0.27900
C258        C  0.07436733  0.36561525  0.10236947    -0.14700
C259        C  0.08322192  0.33718869  0.11960523    -0.29800
H260        H  0.04854289  0.36557573  0.09158330     0.14400
H261        H  0.10896682  0.33367147  0.12934934     0.14900
C262        C  0.07069478  0.15849906  0.09582640    -0.14700
C263        C  0.08530144  0.13375280  0.11442489    -0.29800
H264        H  0.07156584  0.15749721  0.06805524     0.14400
H265        H  0.08579826  0.13702883  0.14210182     0.14900
C266        C  0.12191518  0.40392029  0.15865230    -0.14700
C267        C  0.10280185  0.41556971  0.13217860    -0.29800
H268        H  0.13180493  0.37816963  0.15922922     0.14400
H269        H  0.09171416  0.44063572  0.13603892     0.14900
C270        C  0.11563812  0.08031173  0.12822377    -0.14700
C271        C  0.09731233  0.06920674  0.15530186    -0.29800
H272        H  0.14322183  0.07643864  0.12832819     0.14400
H273        H  0.07021582  0.07552921  0.15703726     0.14900
C274        C  0.10618279  0.07196135  0.36556804    -0.14700
C275        C  0.11961129  0.08229853  0.33532660    -0.29800
H276        H  0.09979523  0.04495837  0.36698872     0.14400
H277        H  0.12505852  0.10904053  0.33048088     0.14900
C278        C  0.07931340  0.12671361  0.38953209    -0.14700
C279        C  0.09140389  0.15460947  0.37271456    -0.29800
H280        H  0.05338177  0.12857016  0.39977152     0.14400
H281        H  0.11764725  0.15609571  0.36383821     0.14900
C282        C  0.10613415  0.41488810  0.36586369    -0.14700
C283        C  0.12860286  0.40584173  0.34111885    -0.29800
H284        H  0.09047598  0.43688362  0.35959847     0.14400
H285        H  0.14437269  0.38329092  0.34275340     0.14900
C286        C  0.09618482  0.33695601  0.37864527    -0.14700
C287        C  0.08533486  0.36308757  0.39845993    -0.29800
H288        H  0.12102305  0.33722851  0.36629034     0.14400
H289        H  0.06088781  0.35907528  0.41147229     0.14900
C290        C  0.15690922  0.12839500  0.08186211    -0.14700
C291        C  0.12863107  0.10981140  0.07365899    -0.29800
H292        H  0.16007743  0.13755731  0.10794861     0.14400
H293        H  0.12658441  0.09946415  0.04787375     0.14900
C294        C  0.13020662  0.10027520  0.41892066    -0.14700
C295        C  0.15805024  0.11800987  0.40855735    -0.29800
H296        H  0.13016344  0.09098826  0.44521700     0.14400
H297        H  0.16112138  0.12511404  0.38192781     0.14900
C298        C  0.40825186  0.15794718  0.12835352    -0.14700
C299        C  0.41770948  0.13241932  0.10734570    -0.29800
H300        H  0.38243194  0.15885878  0.13873494     0.14400
H301        H  0.44380796  0.13358886  0.09727892     0.14900
C302        C  0.36667811  0.11189537  0.07290107    -0.14700
C303        C  0.33900172  0.13086731  0.08144171    -0.29800
H304        H  0.36715400  0.10126631  0.04713743     0.14400
H305        H  0.33592608  0.13979964  0.10754171     0.14900
C306        C  0.39736081  0.07368427  0.15681444    -0.14700
C307        C  0.37987295  0.08420334  0.12893867    -0.29800
H308        H  0.42480184  0.07853454  0.15836118     0.14400
H309        H  0.35209042  0.08150764  0.12965467     0.14900
C310        C  0.40948041  0.13534320  0.38263737    -0.14700
C311        C  0.41895872  0.16191037  0.40268056    -0.29800
H312        H  0.41252525  0.13825959  0.35513032     0.14400
H313        H  0.41523110  0.16034388  0.43012481     0.14900
C314        C  0.33809082  0.12494826  0.41020571    -0.14700
C315        C  0.36565660  0.10664157  0.41957507    -0.29800
H316        H  0.33591225  0.13450349  0.38419711     0.14400
H317        H  0.36653738  0.09652240  0.44553095     0.14900
C318        C  0.38651159  0.07661216  0.36692863    -0.14700
C319        C  0.37055243  0.08475247  0.33726028    -0.29800
H320        H  0.39441223  0.05015939  0.36902165     0.14400
H321        H  0.36324913  0.11103110  0.33224977     0.14900
C322        C  0.12876256  0.39235943  0.07716348    -0.14700
C323        C  0.15620049  0.37343284  0.08675827    -0.29800
H324        H  0.13048345  0.40494687  0.05234568     0.14400
H325        H  0.15739538  0.36165870  0.11171863     0.14900
C326        C  0.16261823  0.38117176  0.41586957    -0.14700
C327        C  0.13383395  0.39889589  0.42267577    -0.29800
H328        H  0.16569712  0.36687412  0.39240774     0.14400
H329        H  0.13351008  0.41337874  0.44653106     0.14900
C330        C  0.37217829  0.40828180  0.16091302    -0.14700
C331        C  0.39414208  0.41790695  0.13595307    -0.29800
H332        H  0.36065043  0.38316801  0.16186939     0.14400
H333        H  0.40650806  0.44258811  0.13963209     0.14900
C334        C  0.42012328  0.36536173  0.10957775    -0.14700
C335        C  0.40885646  0.33857963  0.12838375    -0.29800
H336        H  0.44612684  0.36339112  0.09945769     0.14400
H337        H  0.38283395  0.33705787  0.13781451     0.14900
C338        C  0.36811257  0.39407069  0.08219206    -0.14700
C339        C  0.33977514  0.37572143  0.09139700    -0.29800
H340        H  0.36721117  0.40702325  0.05753664     0.14400
H341        H  0.33752373  0.36352293  0.11601462     0.13400
C342        C  0.36573369  0.38900771  0.41338841    -0.14700
C343        C  0.34199292  0.40948097  0.42719175    -0.29800
H344        H  0.36115581  0.36154143  0.41479807     0.14400
H345        H  0.34394837  0.43706189  0.42420766     0.14900
C346        C  0.36384167  0.41441763  0.34049129    -0.14700
C347        C  0.38579232  0.42461998  0.36508882    -0.29800
H348        H  0.35414716  0.38828212  0.34023384     0.14400
H349        H  0.39573218  0.45057926  0.36327340     0.14900
C350        C  0.41620290  0.37077493  0.37967137    -0.14700
C351        C  0.42679595  0.34427125  0.39907463    -0.29800
H352        H  0.41941478  0.36914102  0.35210407     0.14400
H353        H  0.42120886  0.34435222  0.42632606     0.14900
N354        N  0.03643556  0.43518221  0.53856188    -0.04300
N355        N  0.05839027  0.41079546  0.54663900    -0.56500
N356        N  0.45859219  0.46069022  0.56398495    -0.04000
N357        N  0.43777179  0.45231870  0.58939359    -0.58600
N358        N  0.45729898  0.43710538  0.53986722    -0.03600
N359        N  0.43547633  0.41248771  0.54849825    -0.56400
N360        N  0.03664821  0.45924505  0.56215063    -0.03300
N361        N  0.05851919  0.45149739  0.58671298    -0.58900
C362        C  0.07211438  0.42117280  0.57688961     0.97800
C363        C  0.42339055  0.42211705  0.57960943     0.97600
N364        N  0.45898181  0.06964500  0.54040000    -0.04500
N365        N  0.43519318  0.09268805  0.54716785    -0.57000
N366        N  0.03754137  0.03842680  0.56496376    -0.02600
N367        N  0.06036429  0.04704974  0.58884513    -0.58300
N368        N  0.03724740  0.06160407  0.54050237    -0.04600
N369        N  0.05969308  0.08612166  0.54717288    -0.57300
N370        N  0.45865852  0.04571701  0.56425916    -0.02300
N371        N  0.43469566  0.05223893  0.58753092    -0.58400
Mn372      Mn  0.99814318  0.50032491  0.56288868     1.18400
C373        C  0.41990757  0.08159324  0.57651553     0.99900
C374        C  0.07432121  0.07688094  0.57723075     1.00600
N375        N  0.46139417  0.43384711  0.96034533    -0.04600
N376        N  0.43882876  0.40958800  0.95190060    -0.60900
N377        N  0.03731111  0.46117624  0.93375547    -0.03400
N378        N  0.06111124  0.45449465  0.91055793    -0.61600
N379        N  0.03717997  0.43737585  0.95755070    -0.04100
N380        N  0.06106267  0.41429839  0.95113392    -0.61100
N381        N  0.46085376  0.45861602  0.93751624    -0.03000
N382        N  0.43805234  0.45167042  0.91346700    -0.61800
Mn383      Mn  0.50188060  0.43368446  0.00094152     1.10700
C384        C  0.42404276  0.42109995  0.92249553     1.01100
C385        C  0.07608879  0.42518541  0.92165743     1.01200
N386        N  0.03457176  0.06508087  0.96069100    -0.04100
N387        N  0.05840015  0.08788822  0.95217616    -0.59500
N388        N  0.45853498  0.04121366  0.93185072    -0.03400
N389        N  0.43754127  0.04868036  0.90644200    -0.56200
N390        N  0.45808189  0.06565894  0.95512695    -0.04700
N391        N  0.43669464  0.09027011  0.94551046    -0.59000
N392        N  0.03306471  0.04074665  0.93737173    -0.03700
N393        N  0.05553320  0.04654990  0.91282398    -0.56200
Mn394      Mn  0.99771705  0.06254915  0.49997545     1.20200
Mn395      Mn  0.49703173  0.99971395  0.93247770     1.10100
Cl396      Cl  0.99608179  0.99703391  0.50050740    -0.84200
C397        C  0.07147135  0.07594637  0.92213177     0.98100
C398        C  0.42371359  0.07928521  0.91498703     0.97900
C399        C  0.40250461  0.39872408  0.89771939    -0.00700
C400        C  0.40052797  0.39909958  0.60228633    -0.00700
N401        N  0.30100858  0.38128219  0.50732369    -0.34800
N402        N  0.25295822  0.37952923  0.95032076    -0.55400
N403        N  0.19857065  0.37634761  0.50430374    -0.34800
N404        N  0.24846848  0.36835573  0.55891347    -0.55400
C405        C  0.32189855  0.37423011  0.97761474     0.28800
C406        C  0.31873801  0.36706345  0.53325705     0.28800
C407        C  0.18237564  0.36521180  0.97291825     0.28800
C408        C  0.17973616  0.36401622  0.53067897     0.28800
C409        C  0.28061015  0.39282545  0.93390623     0.37400
C410        C  0.22512446  0.38662900  0.93095972     0.37400
C411        C  0.27600331  0.37352278  0.57937999     0.37400
C412        C  0.22022161  0.37401056  0.57815791     0.37400
C413        C  0.35199395  0.35757911  0.98692151    -0.20100
C414        C  0.34979649  0.35464170  0.52132793    -0.20100
C415        C  0.15258762  0.34715422  0.98093879    -0.20100
C416        C  0.15089073  0.34707987  0.51832704    -0.20100
C417        C  0.27044638  0.40781952  0.90342714    -0.21200
C418        C  0.23518962  0.40376210  0.90147439    -0.21200
C419        C  0.26533231  0.38179386  0.61219722    -0.21200
C420        C  0.22979629  0.38222984  0.61140666    -0.21200
C421        C  0.31482360  0.38921654  0.94554494    -0.16500
C422        C  0.31033572  0.37065263  0.56810785    -0.16500
C423        C  0.18626829  0.37085597  0.56558202    -0.16500
C424        C  0.19104984  0.37733997  0.93985463    -0.16500
H425        H  0.37406702  0.35108092  0.97167708     0.16400
H426        H  0.36997866  0.34271275  0.53613379     0.16400
H427        H  0.13337301  0.33744358  0.96331520     0.16400
H428        H  0.13071084  0.33493529  0.53316392     0.16400
H429        H  0.28670685  0.41985341  0.88440052     0.14700
H430        H  0.21888093  0.41261488  0.88089039     0.14700
H431        H  0.28141164  0.38734009  0.63416257     0.14700
H432        H  0.21305760  0.38807282  0.63273709     0.14700
H433        H  0.27838711  0.39517798  0.50949242     0.27900
H434        H  0.21995407  0.39233245  0.50639592     0.27900
C435        C  0.39603133  0.09783577  0.89349463    -0.00700
N436        N  0.36828513  0.49504760  0.79975659    -0.34800
N437        N  0.36304187  0.44099737  0.75024619    -0.55400
N438        N  0.37515042  0.49394848  0.69768566    -0.34800
N439        N  0.36854589  0.04806860  0.74479436    -0.55400
C440        C  0.35695507  0.46804845  0.81843208     0.28800
C441        C  0.35101004  0.02454257  0.81466382     0.28800
C442        C  0.36310276  0.46699777  0.67965430     0.28800
C443        C  0.36602260  0.02174821  0.67560041     0.28800
C444        C  0.36914341  0.42160198  0.77810107     0.37400
C445        C  0.36978400  0.42114245  0.72296457     0.37400
C446        C  0.37391482  0.06727898  0.77311890     0.37400
C447        C  0.38309355  0.06496436  0.71811991     0.37400
C448        C  0.33949074  0.47955894  0.84702175    -0.20100
C449        C  0.33334890  0.01584024  0.84436389    -0.20100
C450        C  0.35267006  0.47776143  0.64751057    -0.20100
C451        C  0.35026044  0.01291000  0.64486602    -0.20100
C452        C  0.37919660  0.38899142  0.76856427    -0.21200
C453        C  0.37943982  0.38865199  0.73333342    -0.21200
C454        C  0.39125298  0.09715702  0.76424263    -0.21200
C455        C  0.39719715  0.09560235  0.72936909    -0.21200
C456        C  0.36507167  0.43347223  0.81174199    -0.16500
C457        C  0.36309252  0.05795620  0.80660519    -0.16500
C458        C  0.38119802  0.05371465  0.68366116    -0.16500
C459        C  0.36716123  0.43234900  0.68899635    -0.16500
H460        H  0.32814781  0.46417993  0.86712276     0.16400
H461        H  0.32400727  0.03303337  0.86397306     0.16400
H462        H  0.34285255  0.46203951  0.62681657     0.16400
H463        H  0.34520351  0.02850556  0.62272042     0.16400
H464        H  0.38583337  0.36782685  0.78512160     0.14700
H465        H  0.38641342  0.36721328  0.71724762     0.14700
H466        H  0.39906226  0.11778640  0.78109136     0.14700
H467        H  0.40982596  0.11501764  0.71403381     0.14700
H468        H  0.38469865  0.49387055  0.77878817     0.27900
H469        H  0.38744412  0.49265674  0.72127036     0.27900
C470        C  0.39508018  0.10408092  0.59729638    -0.00700
N471        N  0.29862309  0.13428615  0.49641214    -0.34800
N472        N  0.24751132  0.13057157  0.94129176    -0.55400
N473        N  0.19526932  0.13206786  0.49529987    -0.34800
N474        N  0.24626526  0.14055116  0.54930111    -0.55400
C475        C  0.31767258  0.13987966  0.96635543     0.28800
C476        C  0.31670398  0.14558244  0.52375454     0.28800
C477        C  0.17753099  0.13741299  0.96674352     0.28800
C478        C  0.17612200  0.14309923  0.52199274     0.28800
C479        C  0.27535860  0.12230776  0.92250183     0.37400
C480        C  0.21980084  0.12101829  0.92272995     0.37400
C481        C  0.27404741  0.13472243  0.56933086     0.37400
C482        C  0.21808755  0.13438980  0.56876460     0.37400
C483        C  0.34761441  0.15698846  0.97555226    -0.20100
C484        C  0.34666306  0.16159915  0.51287037    -0.20100
C485        C  0.14741166  0.15388967  0.97594976    -0.20100
C486        C  0.14585392  0.15727505  0.50993444    -0.20100
C487        C  0.26535919  0.10781143  0.89161660    -0.21200
C488        C  0.22998660  0.10697064  0.89177475    -0.21200
C489        C  0.26348307  0.12547502  0.60197078    -0.21200
C490        C  0.22802053  0.12533467  0.60163637    -0.21200
C491        C  0.30946656  0.12887119  0.93277877    -0.16500
C492        C  0.30859188  0.13821425  0.55820226    -0.16500
C493        C  0.18373739  0.13715880  0.55692668    -0.16500
C494        C  0.18562958  0.12613041  0.93329550    -0.16500
H495        H  0.36754573  0.16642810  0.95867076     0.16400
H496        H  0.36658894  0.17286917  0.52870432     0.16400
H497        H  0.12718972  0.16262540  0.95909008     0.16400
H498        H  0.12510566  0.16786033  0.52498735     0.16400
H499        H  0.28175701  0.09867422  0.87121177     0.14700
H500        H  0.21373245  0.09708278  0.87151428     0.14700
H501        H  0.27950120  0.11917967  0.62369565     0.14700
H502        H  0.21158128  0.11883127  0.62305074     0.14700
H503        H  0.27660226  0.11904672  0.49717723     0.27900
H504        H  0.21782872  0.11802650  0.49688362     0.27900
C505        C  0.10187630  0.40340935  0.90103146    -0.00700
N506        N  0.50094501  0.30127277  0.86248465    -0.34800
N507        N  0.44755648  0.24858709  0.86923965    -0.55400
N508        N  0.50205225  0.19945709  0.86920429    -0.34800
N509        N  0.06080400  0.25029163  0.86872269    -0.55400
C510        C  0.47215253  0.31824715  0.85365901     0.28800
C511        C  0.03567358  0.31906786  0.86337914     0.28800
C512        C  0.47378348  0.17940065  0.86569661     0.28800
C513        C  0.03146192  0.18233764  0.86440961     0.28800
C514        C  0.42923790  0.27699624  0.87645165     0.37400
C515        C  0.43070111  0.22165132  0.88346966     0.37400
C516        C  0.08104682  0.27759628  0.87578431     0.37400
C517        C  0.07942941  0.22206351  0.87546281     0.37400
C518        C  0.48090469  0.34735035  0.83509267    -0.20100
C519        C  0.02472480  0.34813363  0.84644873    -0.20100
C520        C  0.48303369  0.14859953  0.85051486    -0.20100
C521        C  0.01849959  0.15335323  0.84851503    -0.20100
C522        C  0.39997062  0.26801868  0.89476988    -0.21200
C523        C  0.40096205  0.23289357  0.89930859    -0.21200
C524        C  0.11308409  0.26674577  0.88671996    -0.21200
C525        C  0.11207176  0.23134491  0.88645324    -0.21200
C526        C  0.43889545  0.31058000  0.86621928    -0.16500
C527        C  0.07027839  0.31176727  0.87152062    -0.16500
C528        C  0.06671663  0.18845629  0.87091637    -0.16500
C529        C  0.44145420  0.18714880  0.88023128    -0.16500
H530        H  0.46365740  0.36656169  0.82510952     0.16400
H531        H  0.04063425  0.36729069  0.83402859     0.16400
H532        H  0.46752635  0.12638398  0.84485186     0.16400
H533        H  0.03295262  0.13339713  0.83588342     0.16400
H534        H  0.38020926  0.28497437  0.90419066     0.14700
H535        H  0.38191669  0.21744080  0.91245768     0.14700
H536        H  0.13476496  0.28252633  0.89423889     0.14700
H537        H  0.13278277  0.21449721  0.89378445     0.14700
H538        H  0.50235635  0.28033140  0.87887631     0.27900
H539        H  0.50356969  0.22227314  0.88289949     0.27900
C540        C  0.09622739  0.09631802  0.89896553    -0.00700
N541        N  0.12526732  0.49110875  0.69709922    -0.34800
N542        N  0.12069993  0.04916586  0.74651451    -0.55400
N543        N  0.13504520  0.49391375  0.79831910    -0.34800
N544        N  0.13659780  0.43855319  0.74917480    -0.55400
C545        C  0.12509863  0.02161780  0.67725698     0.28800
C546        C  0.13707849  0.46387413  0.67956869     0.28800
C547        C  0.13514131  0.02640354  0.81658445     0.28800
C548        C  0.14662240  0.46699016  0.81658217     0.28800
C549        C  0.10738997  0.06555005  0.71904526     0.37400
C550        C  0.11388076  0.06860342  0.77435750     0.37400
C551        C  0.12669195  0.41898238  0.72246617     0.37400
C552        C  0.12952100  0.42048710  0.77776107     0.37400
C553        C  0.14039807  0.01222789  0.64650923    -0.20100
C554        C  0.15051130  0.47448822  0.64845511    -0.20100
C555        C  0.15354352  0.01808838  0.84587065    -0.20100
C556        C  0.16538814  0.47852899  0.84450303    -0.20100
C557        C  0.09263485  0.09607514  0.72935748    -0.21200
C558        C  0.09685928  0.09807247  0.76446297    -0.21200
C559        C  0.11376098  0.38790021  0.73393915    -0.21200
C560        C  0.11546333  0.38889370  0.76924951    -0.21200
C561        C  0.11055620  0.05389084  0.68481238    -0.16500
C562        C  0.12962774  0.42955588  0.68816934    -0.16500
C563        C  0.13622530  0.43275113  0.81103325    -0.16500
C564        C  0.12331354  0.05975544  0.80828373    -0.16500
H565        H  0.14573427  0.02756996  0.62419103     0.16400
H566        H  0.16087950  0.45850246  0.62833086     0.16400
H567        H  0.16374707  0.03557774  0.86489239     0.16400
H568        H  0.17699845  0.46313164  0.86437475     0.16400
H569        H  0.08051983  0.11506195  0.71327862     0.14700
H570        H  0.08812461  0.11865257  0.78079254     0.14700
H571        H  0.10368133  0.36705393  0.71859033     0.14700
H572        H  0.10701086  0.36889833  0.78654662     0.14700
H573        H  0.11110165  0.49017647  0.71971842     0.27900
H574        H  0.11769147  0.49266118  0.77804228     0.27900
C575        C  0.09774602  0.10157911  0.59727924    -0.00700
C576        C  0.09520961  0.39843246  0.59922304    -0.00700
N577        N  0.49697830  0.29964897  0.63171912    -0.34800
N578        N  0.44132777  0.24952999  0.63866917    -0.55400
N579        N  0.49380617  0.19719031  0.63911432    -0.34800
N580        N  0.05135333  0.24869051  0.63441348    -0.55400
C581        C  0.46965788  0.31911725  0.64019597     0.28800
C582        C  0.02567090  0.31862273  0.64024901     0.28800
C583        C  0.46516111  0.17919959  0.64737375     0.28800
C584        C  0.02563341  0.17920862  0.64256471     0.28800
C585        C  0.42285490  0.27725259  0.62990395     0.37400
C586        C  0.42110203  0.22207619  0.63236315     0.37400
C587        C  0.07026279  0.27627171  0.62545051     0.37400
C588        C  0.07043315  0.22105160  0.62661576     0.37400
C589        C  0.48091825  0.35002726  0.65375440    -0.20100
C590        C  0.01626148  0.34916889  0.65568303    -0.20100
C591        C  0.47437805  0.14846095  0.66236597    -0.20100
C592        C  0.01565125  0.14938231  0.65906715    -0.20100
C593        C  0.39043147  0.26755217  0.61867566    -0.21200
C594        C  0.38935777  0.23238124  0.62010001    -0.21200
C595        C  0.10176555  0.26622481  0.61235287    -0.21200
C596        C  0.10187872  0.23104042  0.61312197    -0.21200
C597        C  0.43498161  0.31107835  0.63272391    -0.16500
C598        C  0.05954618  0.31023385  0.63014220    -0.16500
C599        C  0.05969395  0.18713457  0.63242832    -0.16500
C600        C  0.43119772  0.18801118  0.63788769    -0.16500
H601        H  0.46528391  0.37115341  0.66242781     0.16400
H602        H  0.03312366  0.36955567  0.66434108     0.16400
H603        H  0.45737804  0.12835452  0.67120503     0.16400
H604        H  0.03208757  0.12918235  0.66832704     0.16400
H605        H  0.36991458  0.28402612  0.61003169     0.14700
H606        H  0.36780942  0.21631395  0.61277642     0.14700
H607        H  0.12240838  0.28245107  0.60307763     0.14700
H608        H  0.12258498  0.21476891  0.60454167     0.14700
H609        H  0.49613623  0.27652867  0.61855710     0.27900
H610        H  0.49460730  0.21968800  0.62498828     0.27900
C611        C  0.07471106  0.36559452  0.60474346    -0.14700
C612        C  0.08443978  0.33844272  0.62338224    -0.29800
H613        H  0.04887867  0.36448107  0.59400000     0.14400
H614        H  0.11031095  0.33606569  0.63299989     0.14900
C615        C  0.08446643  0.15879378  0.62614463    -0.14700
C616        C  0.07519149  0.13208625  0.60640842    -0.29800
H617        H  0.11035357  0.16082525  0.63619937     0.14400
H618        H  0.04895956  0.13206426  0.59664466     0.14900
C619        C  0.12131714  0.40552636  0.65969904    -0.14700
C620        C  0.10183026  0.41656414  0.63331132    -0.29800
H621        H  0.13158903  0.38000009  0.66081998     0.14400
H622        H  0.09055071  0.44162161  0.63679569     0.14900
C623        C  0.11314416  0.08525978  0.62936532    -0.14700
C624        C  0.09472977  0.07388397  0.65626001    -0.29800
H625        H  0.14093522  0.08313894  0.63085553     0.14400
H626        H  0.06714855  0.07785343  0.65680864     0.14900
C627        C  0.10277476  0.07517816  0.86624639    -0.14700
C628        C  0.11838630  0.08514863  0.83691363    -0.29800
H629        H  0.09417853  0.04872727  0.86640734     0.14400
H630        H  0.12606734  0.11153839  0.83307183     0.14900
C631        C  0.07786256  0.13013597  0.89214384    -0.14700
C632        C  0.08973863  0.15813103  0.87538808    -0.29800
H633        H  0.05218648  0.13230274  0.90296054     0.14400
H634        H  0.11581174  0.15955875  0.86594432     0.14900
C635        C  0.11144051  0.42274773  0.86819123    -0.14700
C636        C  0.12934907  0.41043662  0.84128692    -0.29800
H637        H  0.10303229  0.44907841  0.86594790     0.14400
H638        H  0.13688473  0.38391913  0.84002818     0.14900
C639        C  0.09445301  0.34121314  0.87808476    -0.14700
C640        C  0.08271891  0.36979872  0.89372247    -0.29800
H641        H  0.12128099  0.33867029  0.87139177     0.14400
H642        H  0.05619047  0.36870300  0.90248513     0.14900
C643        C  0.15449733  0.13181418  0.58150629    -0.14700
C644        C  0.12705250  0.11201399  0.57303108    -0.29800
H645        H  0.15711803  0.14129609  0.60745868     0.14400
H646        H  0.12692924  0.10081479  0.54751328     0.14900
C647        C  0.12892878  0.10165451  0.91956274    -0.14700
C648        C  0.15702750  0.11886909  0.90892463    -0.29800
H649        H  0.12932801  0.09159879  0.94557618     0.14400
H650        H  0.15959104  0.12694176  0.88253372     0.14900
C651        C  0.40648714  0.15985518  0.62981828    -0.14700
C652        C  0.41615504  0.13529279  0.60778498    -0.29800
H653        H  0.38090176  0.16000571  0.64080922     0.14400
H654        H  0.44207622  0.13748262  0.59739949     0.14900
C655        C  0.36556078  0.11405105  0.57345026    -0.14700
C656        C  0.33762482  0.13247837  0.58275507    -0.29800
H657        H  0.36610745  0.10381971  0.54753785     0.14400
H658        H  0.33482859  0.14094806  0.60903158     0.14900
C659        C  0.39777970  0.07414887  0.65560508    -0.14700
C660        C  0.37979439  0.08586950  0.62864999    -0.29800
H661        H  0.42533251  0.07841970  0.65671845     0.14400
H662        H  0.35201773  0.08325925  0.62989391     0.14900
C663        C  0.41052335  0.13114594  0.87825008    -0.14700
C664        C  0.42130351  0.15853772  0.89639633    -0.29800
H665        H  0.41237205  0.13303936  0.85058063     0.14400
H666        H  0.41789365  0.15891980  0.92396120     0.14900
C667        C  0.33780418  0.12298218  0.90780738    -0.14700
C668        C  0.36567678  0.10488986  0.91689461    -0.29800
H669        H  0.33510072  0.13227991  0.88177983     0.14400
H670        H  0.36673857  0.09500870  0.94293129     0.14900
C671        C  0.38471409  0.07382544  0.86416227    -0.14700
C672        C  0.36778110  0.08306866  0.83532505    -0.29800
H673        H  0.39264252  0.04728988  0.86530173     0.14400
H674        H  0.36061104  0.10953362  0.83121353     0.14900
C675        C  0.12843856  0.39301867  0.57905904    -0.14700
C676        C  0.15621984  0.37486172  0.58905147    -0.29800
H677        H  0.13001708  0.40536270  0.55410452     0.14400
H678        H  0.15769669  0.36343328  0.61412900     0.14900
C679        C  0.16271979  0.38218770  0.91451584    -0.14700
C680        C  0.13335140  0.39810097  0.92370948    -0.29800
H681        H  0.16677296  0.37357847  0.88852666     0.14400
H682        H  0.13215559  0.40832923  0.94961753     0.14900
C683        C  0.37312839  0.40780080  0.66096500    -0.14700
C684        C  0.39712126  0.41555959  0.63734892    -0.29800
H685        H  0.35642805  0.38576143  0.65919921     0.14400
H686        H  0.41356559  0.43733593  0.64329236     0.14900
C687        C  0.41901772  0.36502260  0.60533450    -0.14700
C688        C  0.41071293  0.33968353  0.62720907    -0.29800
H689        H  0.44276388  0.36190238  0.59092430     0.14400
H690        H  0.38733828  0.34007589  0.64212750     0.14900
C691        C  0.36581297  0.39618817  0.58436360    -0.14700
C692        C  0.33963857  0.37451822  0.59232244    -0.29800
H693        H  0.36227867  0.41233458  0.56190994     0.14400
H694        H  0.34035617  0.35772466  0.61423139     0.13400
C695        C  0.37012740  0.38493342  0.91488738    -0.14700
C696        C  0.34397381  0.40432668  0.92577225    -0.29800
H697        H  0.36720014  0.35740432  0.91735682     0.14400
H698        H  0.34442503  0.43176120  0.92135528     0.14900
C699        C  0.37176077  0.40984344  0.84093431    -0.14700
C700        C  0.39291524  0.41995908  0.86627639    -0.29800
H701        H  0.36112820  0.38412359  0.84061618     0.14400
H702        H  0.40315378  0.44575816  0.86409322     0.14900
C703        C  0.42540796  0.36870412  0.88745539    -0.14700
C704        C  0.41468249  0.33967110  0.87157684    -0.29800
H705        H  0.45213447  0.36976252  0.89567031     0.14400
H706        H  0.38780027  0.33604846  0.86508275     0.14900
N707        N  0.03299902  0.93782058  0.04105475    -0.04300
N708        N  0.05537290  0.91347759  0.04792931    -0.56500
N709        N  0.45642213  0.95935365  0.06268595    -0.04000
N710        N  0.43521100  0.95147935  0.08787915    -0.58600
N711        N  0.45563217  0.93537560  0.03895196    -0.03600
N712        N  0.43373875  0.91083798  0.04778543    -0.56400
N713        N  0.03342174  0.96134478  0.06523524    -0.03300
N714        N  0.05592803  0.95304006  0.08910815    -0.58900
C715        C  0.06965647  0.92306630  0.07811245     0.97800
C716        C  0.42099894  0.92114680  0.07849839     0.97600
N717        N  0.46115035  0.56445316  0.04075186    -0.04500
N718        N  0.43787347  0.58801105  0.04720325    -0.57000
N719        N  0.03808445  0.54337606  0.06392228    -0.02600
N720        N  0.06044059  0.55061166  0.08860939    -0.58300
N721        N  0.03820903  0.56774670  0.04051069    -0.04600
N722        N  0.06043319  0.59207015  0.04934748    -0.57300
N723        N  0.46079030  0.54093694  0.06499951    -0.02300
N724        N  0.43718397  0.54841847  0.08841792    -0.58400
Mn725      Mn  0.99414738  0.00243087  0.06714099     1.18400
C726        C  0.42278687  0.57786001  0.07687335     0.99900
C727        C  0.07436813  0.58117855  0.07939976     1.00600
N728        N  0.45964424  0.94053173  0.45992154    -0.04600
N729        N  0.43771843  0.91566162  0.45249185    -0.60900
N730        N  0.03501398  0.95644138  0.43649229    -0.03400
N731        N  0.05879163  0.95070690  0.41319760    -0.61600
N732        N  0.03509598  0.93220176  0.45979965    -0.04100
N733        N  0.05924061  0.90952937  0.45275581    -0.61100
N734        N  0.45932344  0.96421513  0.43600883    -0.03000
N735        N  0.43727470  0.95563646  0.41173869    -0.61800
Mn736      Mn  0.49911606  0.94034083  0.50000959     1.10700
C737        C  0.42360291  0.92533329  0.42232387     1.01100
C738        C  0.07401148  0.92138177  0.42343111     1.01200
N739        N  0.03965328  0.56307568  0.45601679    -0.04100
N740        N  0.06225411  0.58720148  0.44830542    -0.59500
N741        N  0.46025962  0.54232813  0.43265645    -0.03400
N742        N  0.43891757  0.54959371  0.40745562    -0.56200
N743        N  0.46004316  0.56684379  0.45583931    -0.04700
N744        N  0.43852138  0.59137675  0.44635531    -0.59000
N745        N  0.03935623  0.53935477  0.43198254    -0.03700
N746        N  0.06180847  0.54715328  0.40751309    -0.56200
Mn747      Mn  0.99885272  0.56842877  0.99805606     1.20200
Mn748      Mn  0.49869056  0.50084244  0.43337984     1.10100
Cl749      Cl  0.99796730  0.50242039  0.99815143    -0.84200
C750        C  0.07618811  0.57711118  0.41809654     0.98100
C751        C  0.42517107  0.58021578  0.41604202     0.97900
C752        C  0.40057980  0.90155438  0.40060692    -0.00700
C753        C  0.39780155  0.89866547  0.10150394    -0.00700
N754        N  0.29762113  0.87866141  0.00589692    -0.34800
N755        N  0.25016902  0.86694806  0.44590577    -0.55400
N756        N  0.19492090  0.87575729  0.00357478    -0.34800
N757        N  0.24532106  0.86742040  0.05801895    -0.55400
C758        C  0.31983204  0.85927681  0.47169289     0.28800
C759        C  0.31517420  0.86453331  0.03205966     0.28800
C760        C  0.17970823  0.86232633  0.47204049     0.28800
C761        C  0.17640934  0.86330449  0.03011940     0.28800
C762        C  0.27821550  0.87419899  0.42670422     0.37400
C763        C  0.22250752  0.87570573  0.42703403     0.37400
C764        C  0.27300257  0.87288477  0.07825857     0.37400
C765        C  0.21718341  0.87370695  0.07724786     0.37400
C766        C  0.34941989  0.84268254  0.48213967    -0.20100
C767        C  0.34549868  0.85055655  0.02007477    -0.20100
C768        C  0.14925685  0.84648764  0.48190140    -0.20100
C769        C  0.14756835  0.84617504  0.01801895    -0.20100
C770        C  0.26837655  0.88718569  0.39519202    -0.21200
C771        C  0.23294077  0.88813840  0.39539207    -0.21200
C772        C  0.26249879  0.88205511  0.11089674    -0.21200
C773        C  0.22696652  0.88266249  0.11024350    -0.21200
C774        C  0.31232448  0.86851712  0.43757805    -0.16500
C775        C  0.30730506  0.86940599  0.06694330    -0.16500
C776        C  0.18312300  0.87047747  0.06492270    -0.16500
C777        C  0.18815894  0.87152958  0.43805148    -0.16500
H778        H  0.36950668  0.83238194  0.46602009     0.16400
H779        H  0.36538186  0.83826680  0.03498217     0.16400
H780        H  0.12911318  0.83666968  0.46539828     0.16400
H781        H  0.12756783  0.83397459  0.03305077     0.16400
H782        H  0.28491837  0.89538657  0.37442199     0.14700
H783        H  0.21679872  0.89718911  0.37475636     0.14700
H784        H  0.27866569  0.88806921  0.13267362     0.14700
H785        H  0.21036636  0.88914639  0.13149308     0.14700
H786        H  0.27556760  0.89348670  0.00799073     0.27900
H787        H  0.21620575  0.89195523  0.00548891     0.27900
C788        C  0.39794560  0.59917542  0.39434379    -0.00700
N789        N  0.36558535  0.99583916  0.30063945    -0.34800
N790        N  0.35975745  0.94082627  0.25090627    -0.55400
N791        N  0.36986520  0.99347306  0.19828448    -0.34800
N792        N  0.36993710  0.54993857  0.24524719    -0.55400
C793        C  0.35515983  0.96863170  0.31961964     0.28800
C794        C  0.35272702  0.52749315  0.31490437     0.28800
C795        C  0.35756842  0.96630600  0.18068241     0.28800
C796        C  0.36767007  0.52199610  0.17627610     0.28800
C797        C  0.36636521  0.92172652  0.27889813     0.37400
C798        C  0.36613830  0.92072950  0.22356967     0.37400
C799        C  0.37581962  0.56953241  0.27321232     0.37400
C800        C  0.38446312  0.56619894  0.21822183     0.37400
C801        C  0.33879469  0.98009527  0.34893440    -0.20100
C802        C  0.33374956  0.51927468  0.34390574    -0.20100
C803        C  0.34489987  0.97697766  0.14935362    -0.20100
C804        C  0.35331860  0.51207422  0.14511515    -0.20100
C805        C  0.37622084  0.88902268  0.26933667    -0.21200
C806        C  0.37596440  0.88837486  0.23409454    -0.21200
C807        C  0.39337624  0.59908882  0.26376045    -0.21200
C808        C  0.39896808  0.59690059  0.22885541    -0.21200
C809        C  0.36327938  0.93389349  0.31270595    -0.16500
C810        C  0.36528363  0.56062347  0.30685591    -0.16500
C811        C  0.38263097  0.55418092  0.18403061    -0.16500
C812        C  0.36337306  0.93176895  0.18942471    -0.16500
H813        H  0.32819719  0.96459214  0.36939834     0.16400
H814        H  0.32356571  0.53680287  0.36278215     0.16400
H815        H  0.33432083  0.96108615  0.12916189     0.16400
H816        H  0.34893462  0.52689175  0.12230265     0.16400
H817        H  0.38328082  0.86796063  0.28582853     0.14700
H818        H  0.38282528  0.86681190  0.21813707     0.14700
H819        H  0.40161926  0.61984848  0.28024438     0.14700
H820        H  0.41182693  0.61585044  0.21310644     0.14700
H821        H  0.38095124  0.99472743  0.27884568     0.27900
H822        H  0.38365319  0.99245215  0.22110860     0.27900
C823        C  0.39786834  0.60110473  0.09661475    -0.00700
N824        N  0.30198989  0.63047965  0.99589004    -0.34800
N825        N  0.24925598  0.63594356  0.44232757    -0.55400
N826        N  0.19899743  0.62917000  0.99702108    -0.34800
N827        N  0.25030873  0.63631364  0.04987067    -0.55400
C828        C  0.31973137  0.64113519  0.46712751     0.28800
C829        C  0.32009454  0.64217352  0.02297137     0.28800
C830        C  0.17926965  0.64421531  0.46885030     0.28800
C831        C  0.18049007  0.63998028  0.02423749     0.28800
C832        C  0.27659571  0.62727267  0.42287199     0.37400
C833        C  0.22091487  0.62884937  0.42356783     0.37400
C834        C  0.27840087  0.62977145  0.06898536     0.37400
C835        C  0.22273957  0.62904531  0.06967973     0.37400
C836        C  0.35003260  0.65741022  0.47657873    -0.20100
C837        C  0.34980506  0.65847398  0.01181986    -0.20100
C838        C  0.14928286  0.66028089  0.47909714    -0.20100
C839        C  0.15075013  0.65577262  0.01307136    -0.20100
C840        C  0.26565151  0.61506615  0.39134102    -0.21200
C841        C  0.23026481  0.61607288  0.39177761    -0.21200
C842        C  0.26871326  0.61876179  0.10137077    -0.21200
C843        C  0.23329966  0.61834805  0.10181964    -0.21200
C844        C  0.31112423  0.63135531  0.43327998    -0.16500
C845        C  0.31242214  0.63456998  0.05738157    -0.16500
C846        C  0.18841086  0.63279822  0.05876849    -0.16500
C847        C  0.18693817  0.63461898  0.43482167    -0.16500
H848        H  0.37005436  0.66692117  0.45983666     0.16400
H849        H  0.36974970  0.66995792  0.02747251     0.16400
H850        H  0.12892022  0.66981078  0.46285775     0.16400
H851        H  0.13069359  0.66684183  0.02869228     0.16400
H852        H  0.28140676  0.60619747  0.37032473     0.14700
H853        H  0.21344567  0.60809485  0.37115021     0.14700
H854        H  0.28529638  0.61155714  0.12238261     0.14700
H855        H  0.21729099  0.61074548  0.12320505     0.14700
H856        H  0.28019363  0.61491417  0.99695315     0.27900
H857        H  0.22106505  0.61426057  0.99783914     0.27900
C858        C  0.09941225  0.90067551  0.40151612    -0.00700
N859        N  0.50320108  0.80318075  0.37469146    -0.34800
N860        N  0.45024897  0.74998897  0.37552056    -0.55400
N861        N  0.50512810  0.70083395  0.37410519    -0.34800
N862        N  0.05812119  0.75022815  0.36302510    -0.55400
C863        C  0.47455785  0.82022407  0.36487128     0.28800
C864        C  0.03209780  0.81940348  0.36128018     0.28800
C865        C  0.47689068  0.68142324  0.36804632     0.28800
C866        C  0.03006396  0.68165135  0.35929456     0.28800
C867        C  0.43067959  0.77758758  0.38261456     0.37400
C868        C  0.43288870  0.72208313  0.38692180     0.37400
C869        C  0.07841233  0.77760215  0.36942081     0.37400
C870        C  0.07764560  0.72229185  0.36813488     0.37400
C871        C  0.48412871  0.84950167  0.34705198    -0.20100
C872        C  0.02060006  0.84975172  0.34726164    -0.20100
C873        C  0.48618510  0.65233836  0.34985072    -0.20100
C874        C  0.01730857  0.65227700  0.34410931    -0.20100
C875        C  0.40016247  0.76709508  0.39786166    -0.21200
C876        C  0.40167287  0.73185653  0.40078544    -0.21200
C877        C  0.11129536  0.76711081  0.37794661    -0.21200
C878        C  0.11079941  0.73183760  0.37711515    -0.21200
C879        C  0.44028672  0.81178201  0.37473146    -0.16500
C880        C  0.06701008  0.81163797  0.36728872    -0.16500
C881        C  0.06532145  0.68858770  0.36440845    -0.16500
C882        C  0.44436079  0.68803777  0.38256812    -0.16500
H883        H  0.46730555  0.86856592  0.33612829     0.16400
H884        H  0.03606430  0.86991013  0.33590287     0.16400
H885        H  0.47039415  0.63118931  0.34147263     0.16400
H886        H  0.03182949  0.63247219  0.33135053     0.16400
H887        H  0.37917732  0.78309272  0.40626865     0.14700
H888        H  0.38186907  0.71532968  0.41126990     0.14700
H889        H  0.13320463  0.78304265  0.38441229     0.14700
H890        H  0.13220068  0.71522937  0.38284117     0.14700
H891        H  0.50404683  0.78166596  0.39044354     0.27900
H892        H  0.50633593  0.72218653  0.39006450     0.27900
C893        C  0.10001860  0.60067259  0.39708405    -0.00700
N894        N  0.12262955  0.98955820  0.19752938    -0.34800
N895        N  0.11390090  0.54217979  0.24838399    -0.55400
N896        N  0.12722790  0.99451558  0.29879668    -0.34800
N897        N  0.13231227  0.93826497  0.24999002    -0.55400
C898        C  0.12674557  0.51716062  0.17885198     0.28800
C899        C  0.13556499  0.96234958  0.18073866     0.28800
C900        C  0.12469044  0.51881666  0.31886170     0.28800
C901        C  0.13961732  0.96812478  0.31735290     0.28800
C902        C  0.10289965  0.55886737  0.22006270     0.37400
C903        C  0.10145688  0.55917434  0.27592959     0.37400
C904        C  0.12442497  0.91769704  0.22335636     0.37400
C905        C  0.12564841  0.92028418  0.27864661     0.37400
C906        C  0.14441123  0.50835857  0.14913499    -0.20100
C907        C  0.15022609  0.97287482  0.15018571    -0.20100
C908        C  0.14137965  0.51139455  0.34949737    -0.20100
C909        C  0.15793309  0.98053017  0.34518616    -0.20100
C910        C  0.08427592  0.58747009  0.22971998    -0.21200
C911        C  0.08333617  0.58763179  0.26511795    -0.21200
C912        C  0.11317831  0.88605208  0.23498114    -0.21200
C913        C  0.11396569  0.88768249  0.27031051    -0.21200
C914        C  0.11099324  0.54905314  0.18591601    -0.16500
C915        C  0.12780025  0.92803387  0.18904847    -0.16500
C916        C  0.13114848  0.93332807  0.31180571    -0.16500
C917        C  0.10809766  0.54999857  0.31047739    -0.16500
H918        H  0.15150098  0.52387119  0.12749874     0.16400
H919        H  0.16150578  0.95681690  0.13061719     0.16400
H920        H  0.14652173  0.52763587  0.37119825     0.16400
H921        H  0.17019417  0.96569472  0.36510083     0.16400
H922        H  0.07280624  0.60639205  0.21310104     0.14700
H923        H  0.07107442  0.60669394  0.28101025     0.14700
H924        H  0.10507879  0.86430597  0.21973982     0.14700
H925        H  0.10660274  0.86737080  0.28773022     0.14700
H926        H  0.10740224  0.98866400  0.21946185     0.27900
H927        H  0.11013930  0.99246786  0.27835993     0.27900
C928        C  0.10201536  0.60131417  0.09976955    -0.00700
C929        C  0.09263634  0.89919657  0.09950906    -0.00700
N930        N  0.49487124  0.79953824  0.12932822    -0.34800
N931        N  0.44043983  0.74880527  0.13671577    -0.55400
N932        N  0.49342158  0.69786789  0.12570417    -0.34800
N933        N  0.04620761  0.74782885  0.12166023    -0.55400
C934        C  0.46766990  0.81804092  0.14011283     0.28800
C935        C  0.02245818  0.81743951  0.13746690     0.28800
C936        C  0.46714832  0.67963569  0.13919599     0.28800
C937        C  0.02073663  0.67840024  0.12682270     0.28800
C938        C  0.42100785  0.77635941  0.12965565     0.37400
C939        C  0.42051705  0.72106498  0.13074661     0.37400
C940        C  0.06506265  0.77608347  0.11489998     0.37400
C941        C  0.06311210  0.72114772  0.10768812     0.37400
C942        C  0.47913805  0.84773883  0.15594339    -0.20100
C943        C  0.01415278  0.84711091  0.15518324    -0.20100
C944        C  0.47926382  0.64900597  0.15215134    -0.20100
C945        C  0.01285170  0.64761048  0.14282823    -0.20100
C946        C  0.38824216  0.76618159  0.11982765    -0.21200
C947        C  0.38792245  0.73091831  0.12057391    -0.21200
C948        C  0.09468970  0.76728507  0.09725993    -0.21200
C949        C  0.09335936  0.73231537  0.09254085    -0.21200
C950        C  0.43286066  0.81032711  0.13268082    -0.16500
C951        C  0.05578048  0.80940935  0.12508019    -0.16500
C952        C  0.05227734  0.68682870  0.11091089    -0.16500
C953        C  0.43208975  0.68722330  0.13421551    -0.16500
H954        H  0.46357271  0.86799198  0.16661161     0.16400
H955        H  0.03164111  0.86677147  0.16427215     0.16400
H956        H  0.46431741  0.62861709  0.16368420     0.16400
H957        H  0.02925903  0.62594898  0.14742195     0.16400
H958        H  0.36697627  0.78235102  0.11253889     0.14700
H959        H  0.36643405  0.71450561  0.11386535     0.14700
H960        H  0.11495431  0.78425170  0.08848375     0.14700
H961        H  0.11260487  0.71687702  0.07994116     0.14700
H962        H  0.49358758  0.77769916  0.11414902     0.27900
H963        H  0.49134113  0.72024282  0.11142877     0.27900
C964        C  0.07137159  0.86666803  0.10442557    -0.14700
C965        C  0.08110776  0.83783020  0.12040636    -0.29800
H966        H  0.04514239  0.86688092  0.09464852     0.14400
H967        H  0.10728675  0.83420377  0.12884256     0.14900
C968        C  0.07290079  0.65899517  0.09514576    -0.14700
C969        C  0.08702482  0.63428115  0.11424565    -0.29800
H970        H  0.07454826  0.65789320  0.06741671     0.14400
H971        H  0.08679198  0.63778322  0.14189636     0.14900
C972        C  0.11893227  0.90434248  0.16027962    -0.14700
C973        C  0.10020879  0.91648893  0.13380166    -0.29800
H974        H  0.12750862  0.87812748  0.16129853     0.14400
H975        H  0.09013966  0.94202815  0.13738358     0.14900
C976        C  0.11635591  0.58075410  0.13001723    -0.14700
C977        C  0.09713283  0.56970969  0.15668514    -0.29800
H978        H  0.14395292  0.57729783  0.13135465     0.14400
H979        H  0.06997885  0.57594559  0.15722030     0.14900
C980        C  0.11346228  0.58386533  0.36431525    -0.14700
C981        C  0.09366143  0.57135761  0.33891636    -0.29800
H982        H  0.14112438  0.58193267  0.36117503     0.14400
H983        H  0.06605673  0.57520676  0.33976634     0.14900
C984        C  0.07916082  0.63253653  0.38913559    -0.14700
C985        C  0.08904749  0.65907037  0.36926236    -0.29800
H986        H  0.05373941  0.63402923  0.40066732     0.14400
H987        H  0.11430256  0.65973744  0.35760916     0.14900
C988        C  0.10761390  0.92102839  0.36888070    -0.14700
C989        C  0.12648148  0.91048235  0.34194657    -0.29800
H990        H  0.09719471  0.94660604  0.36659625     0.14400
H991        H  0.13670042  0.88497095  0.34045531     0.14900
C992        C  0.09125851  0.84056027  0.37454613    -0.14700
C993        C  0.08051298  0.86717408  0.39376292    -0.29800
H994        H  0.11723523  0.83905457  0.36505840     0.14400
H995        H  0.05481199  0.86463447  0.40452525     0.14900
C996        C  0.15972238  0.62777982  0.08376742    -0.14700
C997        C  0.13147663  0.60937160  0.07524015    -0.29800
H998        H  0.16263906  0.63718355  0.10979496     0.14400
H999        H  0.13002870  0.59879591  0.04949876     0.14900
C1000       C  0.13042084  0.60967598  0.42014995    -0.14700
C1001       C  0.15785404  0.62877289  0.41063167    -0.29800
H1002       H  0.13066698  0.59893127  0.44587399     0.14400
H1003       H  0.16033103  0.63774598  0.38449197     0.14900
C1004       C  0.40815969  0.65813473  0.12730565    -0.14700
C1005       C  0.41813396  0.63315122  0.10571010    -0.29800
H1006       H  0.38308073  0.65760398  0.13936084     0.14400
H1007       H  0.44337804  0.63593469  0.09396407     0.14900
C1008       C  0.36870016  0.61021629  0.07242627    -0.14700
C1009       C  0.34142977  0.62945131  0.08148214    -0.29800
H1010       H  0.36899626  0.59920981  0.04681510     0.14400
H1011       H  0.33883925  0.63871118  0.10749602     0.14900
C1012       C  0.39981856  0.57377635  0.15591914    -0.14700
C1013       C  0.38224474  0.58425205  0.12834753    -0.29800
H1014       H  0.42729984  0.57841242  0.15750364     0.14400
H1015       H  0.35445128  0.58154277  0.12932756     0.14900
C1016       C  0.41351970  0.63206881  0.37939193    -0.14700
C1017       C  0.42466874  0.65886919  0.39803252    -0.29800
H1018       H  0.41571416  0.63421000  0.35179517     0.14400
H1019       H  0.42093485  0.65886754  0.42556273     0.14900
C1020       C  0.33943823  0.62478468  0.40820079    -0.14700
C1021       C  0.36739642  0.60674515  0.41748233    -0.29800
H1022       H  0.33683414  0.63380417  0.38206510     0.14400
H1023       H  0.36834655  0.59700944  0.44356858     0.14900
C1024       C  0.38641484  0.57556900  0.36486389    -0.14700
C1025       C  0.37060311  0.58553083  0.33559334    -0.29800
H1026       H  0.39322849  0.54873554  0.36641868     0.14400
H1027       H  0.36455411  0.61225958  0.33135035     0.14900
C1028       C  0.12542771  0.89322224  0.07870336    -0.14700
C1029       C  0.15323941  0.87499641  0.08856282    -0.29800
H1030       H  0.12664789  0.90518589  0.05355330     0.14400
H1031       H  0.15498197  0.86420487  0.11392340     0.14900
C1032       C  0.15952794  0.87739555  0.41345963    -0.14700
C1033       C  0.13150487  0.89523270  0.42302384    -0.29800
H1034       H  0.16210503  0.86732015  0.38786469     0.14400
H1035       H  0.13169910  0.90646007  0.44855004     0.14900
C1036       C  0.37048292  0.90746065  0.16095908    -0.14700
C1037       C  0.39167394  0.91727230  0.13533793    -0.29800
H1038       H  0.35816844  0.88267864  0.16149481     0.14400
H1039       H  0.40450412  0.94170846  0.13909142     0.14900
C1040       C  0.41785611  0.86572455  0.10724411    -0.14700
C1041       C  0.40847203  0.83904797  0.12704452    -0.29800
H1042       H  0.44312259  0.86410401  0.09535134     0.14400
H1043       H  0.38321746  0.83745174  0.13839458     0.14900
C1044       C  0.36420138  0.89338716  0.08191060    -0.14700
C1045       C  0.33679438  0.87383025  0.09114340    -0.29800
H1046       H  0.36213135  0.90695274  0.05764758     0.14400
H1047       H  0.33563099  0.86075183  0.11543421     0.13400
C1048       C  0.36920243  0.89287401  0.42269638    -0.14700
C1049       C  0.34152694  0.87399479  0.41323253    -0.29800
H1050       H  0.36862116  0.90375829  0.44836305     0.14400
H1051       H  0.33910100  0.86394542  0.38757708     0.14900
C1052       C  0.37084460  0.91016746  0.34193341    -0.14700
C1053       C  0.39025144  0.92131555  0.36825900    -0.29800
H1054       H  0.36301937  0.88360399  0.34032712     0.14400
H1055       H  0.39894607  0.94762054  0.36603110     0.14900
C1056       C  0.42319591  0.87018913  0.39314232    -0.14700
C1057       C  0.41424185  0.84009804  0.37835023    -0.29800
H1058       H  0.44967337  0.87188109  0.40202244     0.14400
H1059       H  0.38787301  0.83528691  0.37082891     0.14900
N1060       N  0.03502250  0.93200731  0.54096770    -0.04300
N1061       N  0.05738709  0.90780429  0.54872174    -0.56500
N1062       N  0.45938673  0.96366105  0.56440673    -0.04000
N1063       N  0.43718203  0.95504318  0.58858193    -0.58600
N1064       N  0.45974754  0.94004250  0.54040180    -0.03600
N1065       N  0.43776745  0.91515047  0.54772492    -0.56400
N1066       N  0.03570248  0.95629008  0.56436788    -0.03300
N1067       N  0.05825411  0.94886283  0.58838263    -0.58900
C1068       C  0.07185596  0.91854119  0.57855051     0.97800
C1069       C  0.42357087  0.92470555  0.57792919     0.97600
N1070       N  0.45960040  0.56603923  0.53962508    -0.04500
N1071       N  0.43726419  0.59022320  0.54708049    -0.57000
N1072       N  0.03872722  0.54035775  0.56269565    -0.02600
N1073       N  0.06175415  0.54753177  0.58681396    -0.58300
N1074       N  0.03934508  0.56383458  0.53852949    -0.04600
N1075       N  0.06275402  0.58737129  0.54587858    -0.57300
N1076       N  0.45956024  0.54262742  0.56396370    -0.02300
N1077       N  0.43702242  0.55051478  0.58821332    -0.58400
Mn1078     Mn  0.99724304  0.99754090  0.56591728     1.18400
C1079       C  0.42301775  0.58028964  0.57730059     0.99900
C1080       C  0.07698221  0.57690270  0.57589933     1.00600
N1081       N  0.45601351  0.93401684  0.95609781    -0.04600
N1082       N  0.43373999  0.90950448  0.94742045    -0.60900
N1083       N  0.03169786  0.96027680  0.93647720    -0.03400
N1084       N  0.05474455  0.95350252  0.91261775    -0.61600
N1085       N  0.03201654  0.93649382  0.96021972    -0.04100
N1086       N  0.05534937  0.91306527  0.95293093    -0.61100
N1087       N  0.45667810  0.95819033  0.93255270    -0.03000
N1088       N  0.43470950  0.95050206  0.90782223    -0.61800
Mn1089     Mn  0.49512368  0.93427754  0.99796071     1.10700
C1090       C  0.42006289  0.92018855  0.91722812     1.01100
C1091       C  0.06967043  0.92399136  0.92308406     1.01200
N1092       N  0.03825940  0.56758045  0.95577227    -0.04100
N1093       N  0.06122554  0.59112459  0.94630681    -0.59500
N1094       N  0.46189669  0.54063809  0.93559704    -0.03400
N1095       N  0.44065078  0.54770526  0.91031377    -0.56200
N1096       N  0.46199681  0.56562471  0.95821570    -0.04700
N1097       N  0.44049807  0.59009675  0.94848645    -0.59000
N1098       N  0.03714997  0.54284367  0.93279545    -0.03700
N1099       N  0.05913586  0.54900708  0.90780639    -0.56200
Mn1100     Mn  0.99982360  0.56503167  0.49697726     1.20200
Mn1101     Mn  0.50057210  0.49950655  0.93599397     1.10100
Cl1102     Cl  0.99810190  0.49963593  0.49728104    -0.84200
C1103       C  0.07433853  0.57909344  0.91622435     0.98100
C1104       C  0.42708072  0.57854334  0.91838122     0.97900
C1105       C  0.39562162  0.89888910  0.89383518    -0.00700
C1106       C  0.39967403  0.90118965  0.59917180    -0.00700
N1107       N  0.30141232  0.86906017  0.49935161    -0.34800
N1108       N  0.24779879  0.88221061  0.95156180    -0.55400
N1109       N  0.19790212  0.87152446  0.50007635    -0.34800
N1110       N  0.24907718  0.86758874  0.55325706    -0.55400
C1111       C  0.31714436  0.87508655  0.97750808     0.28800
C1112       C  0.31943436  0.85961281  0.52730053     0.28800
C1113       C  0.17772383  0.86739830  0.97460703     0.28800
C1114       C  0.17889483  0.86243502  0.52770718     0.28800
C1115       C  0.27538712  0.89534099  0.93491839     0.37400
C1116       C  0.21978430  0.88951830  0.93251235     0.37400
C1117       C  0.27727331  0.87423135  0.57244264     0.37400
C1118       C  0.22140028  0.87498821  0.57288381     0.37400
C1119       C  0.34715675  0.85783891  0.98578744    -0.20100
C1120       C  0.34920048  0.84294646  0.51735405    -0.20100
C1121       C  0.14851940  0.84852931  0.98288480    -0.20100
C1122       C  0.14872764  0.84659648  0.51708138    -0.20100
C1123       C  0.26495094  0.91059896  0.90465715    -0.21200
C1124       C  0.22963011  0.90679438  0.90305176    -0.21200
C1125       C  0.26749881  0.88546876  0.60468452    -0.21200
C1126       C  0.23202275  0.88589908  0.60497261    -0.21200
C1127       C  0.30976139  0.89094494  0.94589099    -0.16500
C1128       C  0.31147934  0.86908804  0.56126824    -0.16500
C1129       C  0.18689534  0.87083769  0.56205389    -0.16500
C1130       C  0.18583929  0.87975312  0.94146232    -0.16500
H1131       H  0.36871470  0.85158171  0.96967883     0.16400
H1132       H  0.36910004  0.83285463  0.53381796     0.16400
H1133       H  0.12932825  0.83843288  0.96545783     0.16400
H1134       H  0.12817926  0.83671627  0.53303098     0.16400
H1135       H  0.28109135  0.92240673  0.88541020     0.14700
H1136       H  0.21316434  0.91573081  0.88262403     0.14700
H1137       H  0.28412315  0.89260087  0.62577601     0.14700
H1138       H  0.21597190  0.89347344  0.62627554     0.14700
H1139       H  0.27959915  0.88433323  0.49923720     0.27900
H1140       H  0.22037710  0.88604982  0.50018814     0.27900
C1141       C  0.39937087  0.59677055  0.89669724    -0.00700
N1142       N  0.35906956  0.99569365  0.79730175    -0.34800
N1143       N  0.35357928  0.94106915  0.74733634    -0.55400
N1144       N  0.36852486  0.99363630  0.69563657    -0.34800
N1145       N  0.37510622  0.54808748  0.74650815    -0.55400
C1146       C  0.34765141  0.96885032  0.81610924     0.28800
C1147       C  0.35854174  0.52374253  0.81638952     0.28800
C1148       C  0.35498004  0.96721474  0.67782991     0.28800
C1149       C  0.37347967  0.52170931  0.67698864     0.28800
C1150       C  0.35884252  0.92183170  0.77552591     0.37400
C1151       C  0.36090810  0.92103046  0.72017561     0.37400
C1152       C  0.38118348  0.56674656  0.77505725     0.37400
C1153       C  0.38979017  0.56502977  0.71989855     0.37400
C1154       C  0.33163785  0.98066250  0.84545835    -0.20100
C1155       C  0.34002162  0.51476329  0.84550551    -0.20100
C1156       C  0.34258572  0.97867780  0.64669201    -0.20100
C1157       C  0.35995054  0.51201948  0.64547319    -0.20100
C1158       C  0.36864363  0.88903611  0.76622791    -0.21200
C1159       C  0.36988725  0.88852033  0.73096821    -0.21200
C1160       C  0.39928393  0.59625705  0.76648495    -0.21200
C1161       C  0.40482940  0.59510162  0.73150354    -0.21200
C1162       C  0.35515177  0.93411666  0.80927421    -0.16500
C1163       C  0.37003642  0.55734607  0.80841025    -0.16500
C1164       C  0.38751943  0.55418950  0.68526292    -0.16500
C1165       C  0.35997424  0.93248297  0.68603814    -0.16500
H1166       H  0.32083424  0.96547128  0.86598423     0.16400
H1167       H  0.32927001  0.53185808  0.86446400     0.16400
H1168       H  0.33138134  0.96335134  0.62639669     0.16400
H1169       H  0.35626358  0.52704620  0.62265657     0.16400
H1170       H  0.37481710  0.86787904  0.78295842     0.14700
H1171       H  0.37725190  0.86696657  0.71523419     0.14700
H1172       H  0.40790169  0.61632468  0.78362889     0.14700
H1173       H  0.41806202  0.61428872  0.71637133     0.14700
H1174       H  0.37465289  0.99410753  0.77574431     0.27900
H1175       H  0.38238476  0.99180582  0.71837072     0.27900
C1176       C  0.39888051  0.60359797  0.59784617    -0.00700
N1177       N  0.30138896  0.63292708  0.49545204    -0.34800
N1178       N  0.25087436  0.62993741  0.94287532    -0.55400
N1179       N  0.19783329  0.63525113  0.49664959    -0.34800
N1180       N  0.24987194  0.63847300  0.54972658    -0.55400
C1181       C  0.32029402  0.63851381  0.96757911     0.28800
C1182       C  0.32015767  0.64313694  0.52283658     0.28800
C1183       C  0.18093881  0.63724539  0.96864648     0.28800
C1184       C  0.17954141  0.64473095  0.52448703     0.28800
C1185       C  0.27839278  0.62089548  0.92405472     0.37400
C1186       C  0.22309350  0.62057927  0.92456245     0.37400
C1187       C  0.27792650  0.63094025  0.56868191     0.37400
C1188       C  0.22204754  0.63103594  0.56925350     0.37400
C1189       C  0.34985202  0.65620055  0.97670804    -0.20100
C1190       C  0.35032081  0.65867713  0.51177344    -0.20100
C1191       C  0.15111219  0.65410024  0.97789890    -0.20100
C1192       C  0.14948294  0.66065472  0.51430021    -0.20100
C1193       C  0.26818430  0.60610888  0.89342245    -0.21200
C1194       C  0.23287414  0.60590766  0.89373059    -0.21200
C1195       C  0.26792916  0.61910946  0.60067106    -0.21200
C1196       C  0.23247387  0.61911288  0.60101411    -0.21200
C1197       C  0.31238740  0.62708659  0.93423849    -0.16500
C1198       C  0.31223577  0.63552831  0.55740198    -0.16500
C1199       C  0.18759936  0.63570022  0.55855548    -0.16500
C1200       C  0.18922749  0.62654491  0.93507657    -0.16500
H1201       H  0.36954536  0.66597873  0.95985098     0.16400
H1202       H  0.37073328  0.66919285  0.52749643     0.16400
H1203       H  0.13160653  0.66398594  0.96107760     0.16400
H1204       H  0.12932842  0.67053993  0.53059451     0.16400
H1205       H  0.28439224  0.59640016  0.87313440     0.14700
H1206       H  0.21636927  0.59599172  0.87367889     0.14700
H1207       H  0.28436131  0.61098939  0.62146262     0.14700
H1208       H  0.21634694  0.61103482  0.62213546     0.14700
H1209       H  0.27893724  0.61837472  0.49614688     0.27900
H1210       H  0.21989715  0.62042542  0.49665590     0.27900
C1211       C  0.09571413  0.90291568  0.90204653    -0.00700
N1212       N  0.50660872  0.79841344  0.88093931    -0.34800
N1213       N  0.45087621  0.74914502  0.88314321    -0.55400
N1214       N  0.50333017  0.69745796  0.88423519    -0.34800
N1215       N  0.05827868  0.74793207  0.87359334    -0.55400
C1216       C  0.47876710  0.81732524  0.87267377     0.28800
C1217       C  0.03248132  0.81633147  0.86083091     0.28800
C1218       C  0.47489411  0.67994166  0.87486014     0.28800
C1219       C  0.03080471  0.67842852  0.87223987     0.28800
C1220       C  0.43415228  0.77755961  0.89353004     0.37400
C1221       C  0.43246769  0.72175671  0.89415919     0.37400
C1222       C  0.07688002  0.77636107  0.88104518     0.37400
C1223       C  0.07584000  0.72082580  0.88596311     0.37400
C1224       C  0.48921150  0.84558679  0.85370030    -0.20100
C1225       C  0.02270845  0.84451377  0.84161830    -0.20100
C1226       C  0.48434251  0.65039135  0.85757013    -0.20100
C1227       C  0.01982980  0.64712397  0.85916242    -0.20100
C1228       C  0.40411968  0.76819061  0.91038707    -0.21200
C1229       C  0.40307731  0.73272164  0.91078818    -0.21200
C1230       C  0.10706911  0.76721468  0.89747597    -0.21200
C1231       C  0.10639498  0.73190474  0.90060091    -0.21200
C1232       C  0.44551018  0.81140908  0.88619744    -0.16500
C1233       C  0.06624411  0.81007255  0.87294470    -0.16500
C1234       C  0.06443810  0.68644779  0.88293380    -0.16500
C1235       C  0.44200479  0.68738984  0.88773594    -0.16500
H1236       H  0.47395636  0.86623886  0.84377396     0.16400
H1237       H  0.03935215  0.86401629  0.83079486     0.16400
H1238       H  0.46858346  0.63036322  0.84681761     0.16400
H1239       H  0.03450137  0.62553309  0.85046902     0.16400
H1240       H  0.38489698  0.78505546  0.92100526     0.14700
H1241       H  0.38295083  0.71691751  0.92172110     0.14700
H1242       H  0.12717346  0.78413879  0.90667743     0.14700
H1243       H  0.12597965  0.71625267  0.91236613     0.14700
H1244       H  0.50689459  0.77783195  0.89790913     0.27900
H1245       H  0.50420992  0.71855628  0.90060075     0.27900
C1246       C  0.10357295  0.59586824  0.89511274    -0.00700
N1247       N  0.12201030  0.99369832  0.69758345    -0.34800
N1248       N  0.12835134  0.54617666  0.74553345    -0.55400
N1249       N  0.12620453  0.99729362  0.79984292    -0.34800
N1250       N  0.13270216  0.94190159  0.75041487    -0.55400
C1251       C  0.12966109  0.51888999  0.67688549     0.28800
C1252       C  0.13470620  0.96681884  0.67994628     0.28800
C1253       C  0.14544888  0.52257665  0.81478335     0.28800
C1254       C  0.13780971  0.97066413  0.81868782     0.28800
C1255       C  0.11350255  0.56261840  0.71885990     0.37400
C1256       C  0.12235656  0.56502209  0.77394152     0.37400
C1257       C  0.12618458  0.92146796  0.72322717     0.37400
C1258       C  0.12581018  0.92323471  0.77874738     0.37400
C1259       C  0.14515620  0.50909452  0.64637560    -0.20100
C1260       C  0.14718432  0.97791835  0.64861149    -0.20100
C1261       C  0.16484560  0.51375168  0.84325334    -0.20100
C1262       C  0.15499286  0.98289329  0.84731484    -0.20100
C1263       C  0.09847532  0.59260044  0.73022443    -0.21200
C1264       C  0.10419322  0.59419681  0.76518881    -0.21200
C1265       C  0.11568799  0.88934857  0.73422015    -0.21200
C1266       C  0.11533600  0.89048817  0.76955302    -0.21200
C1267       C  0.11562315  0.55129345  0.68441373    -0.16500
C1268       C  0.12976237  0.93201010  0.68885225    -0.16500
C1269       C  0.12967701  0.93577831  0.81248417    -0.16500
C1270       C  0.13356087  0.55587087  0.80729813    -0.16500
H1271       H  0.15139827  0.52434944  0.62423018     0.16400
H1272       H  0.15811135  0.96240342  0.62841695     0.16400
H1273       H  0.17601408  0.53091985  0.86203168     0.16400
H1274       H  0.16652758  0.96792603  0.86756328     0.16400
H1275       H  0.08515691  0.61143843  0.71494174     0.14700
H1276       H  0.09564398  0.61429754  0.78219736     0.14700
H1277       H  0.10853767  0.86762023  0.71849126     0.14700
H1278       H  0.10794870  0.86970768  0.78638476     0.14700
H1279       H  0.10840060  0.99241117  0.72048661     0.27900
H1280       H  0.11002353  0.99545018  0.77868078     0.27900
C1281       C  0.10104751  0.60009476  0.59713861    -0.00700
C1282       C  0.09668988  0.89679228  0.60028160    -0.00700
N1283       N  0.49772295  0.80331766  0.63204897    -0.34800
N1284       N  0.44369984  0.75187497  0.63603299    -0.55400
N1285       N  0.49786697  0.70045722  0.63333875    -0.34800
N1286       N  0.05579155  0.74644209  0.63898091    -0.55400
C1287       C  0.46986455  0.82185388  0.64091223     0.28800
C1288       C  0.02964432  0.81649661  0.64402254     0.28800
C1289       C  0.46977224  0.68200499  0.64252574     0.28800
C1290       C  0.02950529  0.67605533  0.64482785     0.28800
C1291       C  0.42450230  0.77936553  0.62785215     0.37400
C1292       C  0.42440660  0.72398451  0.62869391     0.37400
C1293       C  0.07464910  0.77416546  0.63000245     0.37400
C1294       C  0.07471078  0.71876868  0.63072904     0.37400
C1295       C  0.48030149  0.85229391  0.65611169    -0.20100
C1296       C  0.01983639  0.84728733  0.65869804    -0.20100
C1297       C  0.48004300  0.65176404  0.65790353    -0.20100
C1298       C  0.01918919  0.64506317  0.65890796    -0.20100
C1299       C  0.39259341  0.76897579  0.61576405    -0.21200
C1300       C  0.39252970  0.73374277  0.61630360    -0.21200
C1301       C  0.10598734  0.76414987  0.61652668    -0.21200
C1302       C  0.10602845  0.72891761  0.61697406    -0.21200
C1303       C  0.43556865  0.81353302  0.63198023    -0.16500
C1304       C  0.06374029  0.80824440  0.63429298    -0.16500
C1305       C  0.06385022  0.68462035  0.63573910    -0.16500
C1306       C  0.43535289  0.69002458  0.63372119    -0.16500
H1307       H  0.46408647  0.87269964  0.66543624     0.16400
H1308       H  0.03648222  0.86795477  0.66710874     0.16400
H1309       H  0.46367112  0.63155575  0.66767647     0.16400
H1310       H  0.03547647  0.62437340  0.66726553     0.16400
H1311       H  0.37168797  0.78499301  0.60719906     0.14700
H1312       H  0.37155554  0.71728108  0.60824437     0.14700
H1313       H  0.12644590  0.78044092  0.60696010     0.14700
H1314       H  0.12651547  0.71270831  0.60775989     0.14700
H1315       H  0.49763424  0.78083124  0.61781657     0.27900
H1316       H  0.49785825  0.72284715  0.61896763     0.27900
C1317       C  0.07765737  0.86314479  0.60683676    -0.14700
C1318       C  0.08815916  0.83689096  0.62650537    -0.29800
H1319       H  0.05192314  0.86072185  0.59608121     0.14400
H1320       H  0.11402161  0.83590310  0.63656286     0.14900
C1321       C  0.08860242  0.65642011  0.62837131    -0.14700
C1322       C  0.07912677  0.63062180  0.60752359    -0.29800
H1323       H  0.11451074  0.65784201  0.63850571     0.14400
H1324       H  0.05299152  0.63144769  0.59756391     0.14900
C1325       C  0.12429381  0.90698835  0.66021840    -0.14700
C1326       C  0.10341689  0.91582936  0.63404294    -0.29800
H1327       H  0.13717848  0.88260274  0.66108332     0.14400
H1328       H  0.09003745  0.93974399  0.63791882     0.14900
C1329       C  0.11654239  0.58211966  0.62849061    -0.14700
C1330       C  0.09890866  0.57114131  0.65611197    -0.29800
H1331       H  0.14427696  0.57930219  0.62924061     0.14400
H1332       H  0.07150797  0.57580097  0.65774576     0.14900
C1333       C  0.11397609  0.57151197  0.86580506    -0.14700
C1334       C  0.12982569  0.58078415  0.83619975    -0.29800
H1335       H  0.10615634  0.54487298  0.86780687     0.14400
H1336       H  0.13734000  0.60719057  0.83176021     0.14900
C1337       C  0.09204731  0.63001179  0.88006647    -0.14700
C1338       C  0.08403816  0.65785092  0.89851704    -0.29800
H1339       H  0.08981233  0.63228755  0.85245302     0.14400
H1340       H  0.08674453  0.65752534  0.92609028     0.14900
C1341       C  0.10508466  0.92332329  0.86962256    -0.14700
C1342       C  0.12344571  0.91237019  0.84240785    -0.29800
H1343       H  0.09591399  0.94940805  0.86789055     0.14400
H1344       H  0.13163730  0.88600280  0.84079785     0.14900
C1345       C  0.08962152  0.84029444  0.87962010    -0.14700
C1346       C  0.07684150  0.86919989  0.89382951    -0.29800
H1347       H  0.11684974  0.83805192  0.87442087     0.14400
H1348       H  0.04977070  0.86820870  0.90084636     0.14900
C1349       C  0.15862904  0.62935579  0.58311113    -0.14700
C1350       C  0.13052099  0.61107131  0.57345470    -0.29800
H1351       H  0.16172891  0.63703813  0.60962033     0.14400
H1352       H  0.12995641  0.60153215  0.54727582     0.14900
C1353       C  0.13379812  0.60138911  0.91877132    -0.14700
C1354       C  0.16131450  0.62032890  0.91011078    -0.29800
H1355       H  0.13247143  0.59091979  0.94457937     0.14400
H1356       H  0.16392331  0.63032624  0.88429104     0.14900
C1357       C  0.41064870  0.66132153  0.62700508    -0.14700
C1358       C  0.42028485  0.63518543  0.60678452    -0.29800
H1359       H  0.38486034  0.66235232  0.63745271     0.14400
H1360       H  0.44629652  0.63642028  0.59651589     0.14900
C1361       C  0.36915979  0.61248412  0.57378050    -0.14700
C1362       C  0.34117316  0.63098143  0.58230025    -0.29800
H1363       H  0.36959717  0.60142635  0.54819348     0.14400
H1364       H  0.33812748  0.64024400  0.60829209     0.14900
C1365       C  0.40291945  0.57549520  0.65707571    -0.14700
C1366       C  0.38424919  0.58639839  0.63013124    -0.29800
H1367       H  0.43037437  0.58046499  0.65769946     0.14400
H1368       H  0.35654780  0.58292648  0.63161573     0.14900
C1369       C  0.41275453  0.63099712  0.88283431    -0.14700
C1370       C  0.42196645  0.65804445  0.90222569    -0.29800
H1371       H  0.41451541  0.63419001  0.85531236     0.14400
H1372       H  0.41882547  0.65690946  0.92976879     0.14900
C1373       C  0.34070440  0.62057175  0.90966578    -0.14700
C1374       C  0.36836877  0.60255052  0.91936241    -0.29800
H1375       H  0.33846087  0.62989371  0.88359323     0.14400
H1376       H  0.36908960  0.59266262  0.94541353     0.14900
C1377       C  0.38951666  0.57315818  0.86660760    -0.14700
C1378       C  0.37374062  0.58249794  0.83717059    -0.29800
H1379       H  0.39754928  0.54667205  0.86784279     0.14400
H1380       H  0.36637588  0.60887449  0.83286305     0.14900
C1381       C  0.12933725  0.89246694  0.57871378    -0.14700
C1382       C  0.15795242  0.87485506  0.58721383    -0.29800
H1383       H  0.12944391  0.90469285  0.55365893     0.14400
H1384       H  0.16066341  0.86356584  0.61231507     0.14900
C1385       C  0.15736091  0.88355198  0.91591525    -0.14700
C1386       C  0.12714171  0.89787173  0.92503767    -0.29800
H1387       H  0.16199470  0.87575535  0.88974613     0.14400
H1388       H  0.12534251  0.90750488  0.95113745     0.14900
C1389       C  0.36879740  0.90878003  0.65743570    -0.14700
C1390       C  0.39024673  0.91967782  0.63236725    -0.29800
H1391       H  0.35814630  0.88326779  0.65787534     0.14400
H1392       H  0.40148746  0.94480568  0.63636349     0.14900
C1393       C  0.42065511  0.86911700  0.60647178    -0.14700
C1394       C  0.41089809  0.84187099  0.62536071    -0.29800
H1395       H  0.44663964  0.86847096  0.59612999     0.14400
H1396       H  0.38500589  0.83933071  0.63497032     0.14900
C1397       C  0.36796328  0.89386152  0.57703669    -0.14700
C1398       C  0.34052965  0.87423998  0.58571338    -0.29800
H1399       H  0.36723868  0.90584547  0.55187426     0.14400
H1400       H  0.33837794  0.86247003  0.61056923     0.13400
C1401       C  0.36367229  0.88574268  0.91259087    -0.14700
C1402       C  0.33888024  0.90567117  0.92562667    -0.29800
H1403       H  0.35959321  0.85822555  0.91400024     0.14400
H1404       H  0.34018650  0.93321751  0.92213553     0.14900
C1405       C  0.36273300  0.91082772  0.83861624    -0.14700
C1406       C  0.38398555  0.92130725  0.86388960    -0.29800
H1407       H  0.35363257  0.88449805  0.83808736     0.14400
H1408       H  0.39339079  0.94746302  0.86238794     0.14900
C1409       C  0.41498068  0.86780307  0.87958391    -0.14700
C1410       C  0.42550673  0.84134926  0.89927890    -0.29800
H1411       H  0.41866381  0.86607031  0.85209014     0.14400
H1412       H  0.41939260  0.84149460  0.92641408     0.14900
N1413       N  0.54163413  0.43518146  0.04234080    -0.04300
N1414       N  0.56282286  0.41040615  0.05178747    -0.56500
N1415       N  0.95851705  0.46121655  0.06259893    -0.04000
N1416       N  0.93691595  0.45318362  0.08744189    -0.58600
N1417       N  0.95789104  0.43741959  0.03868280    -0.03600
N1418       N  0.93573067  0.41294417  0.04692271    -0.56400
N1419       N  0.54119819  0.45951128  0.06580816    -0.03300
N1420       N  0.56211689  0.45155724  0.09125456    -0.58900
C1421       C  0.57584028  0.42092012  0.08238363     0.97800
C1422       C  0.92269391  0.42296897  0.07755333     0.97600
N1423       N  0.95469354  0.06698536  0.04229244    -0.04500
N1424       N  0.93149932  0.09065982  0.04865429    -0.57000
N1425       N  0.53599463  0.04111912  0.06358147    -0.02600
N1426       N  0.55859460  0.04911060  0.08789095    -0.58300
N1427       N  0.53594526  0.06474219  0.03952085    -0.04600
N1428       N  0.55843422  0.08906576  0.04707126    -0.57300
N1429       N  0.95428668  0.04358838  0.06664109    -0.02300
N1430       N  0.93073247  0.05124219  0.09005392    -0.58400
Mn1431     Mn  0.50110605  0.50030312  0.06616879     1.18400
C1432       C  0.91640000  0.08069662  0.07840318     0.99900
C1433       C  0.57280657  0.07909193  0.07713575     1.00600
N1434       N  0.95784102  0.43365365  0.45633618    -0.04600
N1435       N  0.93597318  0.40881839  0.44764133    -0.60900
N1436       N  0.53727134  0.45991603  0.43560629    -0.03400
N1437       N  0.56100689  0.45270993  0.41269594    -0.61600
N1438       N  0.53651755  0.43623992  0.45949461    -0.04100
N1439       N  0.56000871  0.41274546  0.45351035    -0.61100
N1440       N  0.95835420  0.45774535  0.43270522    -0.03000
N1441       N  0.93677954  0.44963909  0.40785713    -0.61800
Mn1442     Mn  0.99704933  0.43398813  0.49786143     1.10700
C1443       C  0.92252044  0.41918855  0.41728008     1.01100
C1444       C  0.57516267  0.42314880  0.42400410     1.01200
N1445       N  0.53931647  0.07056426  0.45738450    -0.04100
N1446       N  0.56286576  0.09361705  0.44822257    -0.59500
N1447       N  0.95842478  0.03874316  0.43491569    -0.03400
N1448       N  0.93824121  0.04720347  0.40916358    -0.56200
N1449       N  0.95881898  0.06318581  0.45814832    -0.04700
N1450       N  0.93883330  0.08874521  0.44833162    -0.59000
N1451       N  0.53816070  0.04585045  0.43441956    -0.03700
N1452       N  0.56057179  0.05147079  0.40971570    -0.56200
Mn1453     Mn  0.49667568  0.06546310  0.99781757     1.20200
Mn1454     Mn  0.99621061  0.99691166  0.43550527     1.10100
Cl1455     Cl  0.49589199  0.00000201  0.99787121    -0.84200
C1456       C  0.57616508  0.08124392  0.41833467     0.98100
C1457       C  0.92585732  0.07842701  0.41765741     0.97900
C1458       C  0.89828492  0.39779761  0.39396093    -0.00700
C1459       C  0.89892647  0.40035895  0.09978557    -0.00700
N1460       N  0.79798316  0.38468324  0.00392196    -0.34800
N1461       N  0.75178380  0.38197247  0.45185576    -0.55400
N1462       N  0.69608073  0.39089669  0.00228854    -0.34800
N1463       N  0.74557996  0.37943887  0.05661514    -0.55400
C1464       C  0.82088033  0.37679370  0.47806025     0.28800
C1465       C  0.81453061  0.36952105  0.03015572     0.28800
C1466       C  0.68201019  0.36585104  0.47480910     0.28800
C1467       C  0.67671150  0.38098463  0.02918453     0.28800
C1468       C  0.77902659  0.39531488  0.43496113     0.37400
C1469       C  0.72376413  0.38825811  0.43260278     0.37400
C1470       C  0.77384184  0.38319823  0.07634720     0.37400
C1471       C  0.71856588  0.39039730  0.07526890     0.37400
C1472       C  0.85121526  0.36027190  0.48659988    -0.20100
C1473       C  0.84347616  0.35295744  0.01816739    -0.20100
C1474       C  0.65281904  0.34689288  0.48291926    -0.20100
C1475       C  0.64581805  0.36749783  0.01764905    -0.20100
C1476       C  0.76842206  0.40959250  0.40428222    -0.21200
C1477       C  0.73321823  0.40501371  0.40272072    -0.21200
C1478       C  0.76472803  0.39570521  0.10829732    -0.21200
C1479       C  0.72948982  0.40043845  0.10755383    -0.21200
C1480       C  0.81328291  0.39195338  0.44623332    -0.16500
C1481       C  0.80738916  0.37552571  0.06499623    -0.16500
C1482       C  0.68433400  0.38947021  0.06329058    -0.16500
C1483       C  0.69018415  0.37802428  0.44178535    -0.16500
H1484       H  0.87303708  0.35443266  0.47067373     0.16400
H1485       H  0.86244873  0.33937306  0.03311959     0.16400
H1486       H  0.63381993  0.33660318  0.46539009     0.16400
H1487       H  0.62423597  0.35769268  0.03195111     0.16400
H1488       H  0.78437944  0.42129293  0.38481138     0.14700
H1489       H  0.71655848  0.41306559  0.38207003     0.14700
H1490       H  0.78168287  0.40130520  0.12958648     0.14700
H1491       H  0.71375582  0.40990073  0.12832334     0.14700
H1492       H  0.77739600  0.40144479  0.00597453     0.27900
H1493       H  0.71883000  0.40499593  0.00379367     0.27900
C1494       C  0.89923828  0.09838004  0.39646204    -0.00700
N1495       N  0.86400147  0.49574215  0.29820558    -0.34800
N1496       N  0.85818278  0.44134084  0.24818631    -0.55400
N1497       N  0.87169441  0.49386511  0.19640682    -0.34800
N1498       N  0.86683823  0.05210682  0.24701811    -0.55400
C1499       C  0.85197505  0.46889524  0.31667061     0.28800
C1500       C  0.85110207  0.02922511  0.31702573     0.28800
C1501       C  0.85866434  0.46726192  0.17853134     0.28800
C1502       C  0.86372329  0.02444198  0.17760123     0.28800
C1503       C  0.86366045  0.42206038  0.27620714     0.37400
C1504       C  0.86544348  0.42135631  0.22107803     0.37400
C1505       C  0.87362427  0.07137272  0.27502915     0.37400
C1506       C  0.88104157  0.06840536  0.21984981     0.37400
C1507       C  0.83527512  0.48071615  0.34560913    -0.20100
C1508       C  0.83335764  0.02101316  0.34678792    -0.20100
C1509       C  0.84669362  0.47842758  0.14713176    -0.20100
C1510       C  0.84962959  0.01479917  0.14625090    -0.20100
C1511       C  0.87379800  0.38936721  0.26691626    -0.21200
C1512       C  0.87483231  0.38890406  0.23169540    -0.21200
C1513       C  0.89143773  0.10074120  0.26549211    -0.21200
C1514       C  0.89622272  0.09880705  0.23046499    -0.21200
C1515       C  0.85916008  0.43408689  0.30977266    -0.16500
C1516       C  0.86386829  0.06228449  0.30885032    -0.16500
C1517       C  0.87854206  0.05667519  0.18559243    -0.16500
C1518       C  0.86351375  0.43262556  0.18709168    -0.16500
H1519       H  0.82380178  0.46551409  0.36577195     0.16400
H1520       H  0.82428102  0.03851166  0.36625170     0.16400
H1521       H  0.83591343  0.46293702  0.12673151     0.16400
H1522       H  0.84539403  0.02990397  0.12358833     0.16400
H1523       H  0.88007568  0.36822053  0.28362859     0.14700
H1524       H  0.88210787  0.36740935  0.21582689     0.14700
H1525       H  0.90042590  0.12116911  0.28201333     0.14700
H1526       H  0.90913513  0.11766787  0.21464983     0.14700
H1527       H  0.88008469  0.49417172  0.27700993     0.27900
H1528       H  0.88522676  0.49223725  0.21932328     0.27900
C1529       C  0.89203635  0.10437608  0.09838999    -0.00700
N1530       N  0.79721063  0.13840673  0.99760651    -0.34800
N1531       N  0.75285827  0.13266971  0.44516768    -0.55400
N1532       N  0.69402104  0.13943573  0.99815035    -0.34800
N1533       N  0.74483711  0.14368368  0.05163661    -0.55400
C1534       C  0.82275595  0.14072631  0.47086748     0.28800
C1535       C  0.81547876  0.14862624  0.02520161     0.28800
C1536       C  0.68288162  0.13886180  0.47019654     0.28800
C1537       C  0.67499806  0.14867683  0.02558401     0.28800
C1538       C  0.78069202  0.12445497  0.42646583     0.37400
C1539       C  0.72542218  0.12306167  0.42640722     0.37400
C1540       C  0.77279066  0.13591768  0.07058699     0.37400
C1541       C  0.71694660  0.13557063  0.07080862     0.37400
C1542       C  0.85311401  0.15661523  0.48073962    -0.20100
C1543       C  0.84612708  0.16362406  0.01467627    -0.20100
C1544       C  0.65322856  0.15609139  0.47917295    -0.20100
C1545       C  0.64495349  0.16417579  0.01476298    -0.20100
C1546       C  0.77100256  0.10997363  0.39548833    -0.21200
C1547       C  0.73572481  0.10904555  0.39546902    -0.21200
C1548       C  0.76266868  0.12336238  0.10227189    -0.21200
C1549       C  0.72721217  0.12309719  0.10239037    -0.21200
C1550       C  0.81455474  0.13089586  0.43696480    -0.16500
C1551       C  0.80712654  0.14046452  0.05943451    -0.16500
C1552       C  0.68257581  0.13982021  0.05978662    -0.16500
C1553       C  0.69136737  0.12823985  0.43667430    -0.16500
H1554       H  0.87361514  0.16558825  0.46432071     0.16400
H1555       H  0.86649755  0.17364072  0.03077959     0.16400
H1556       H  0.63421724  0.16651733  0.46214962     0.16400
H1557       H  0.62427810  0.17369580  0.03061733     0.16400
H1558       H  0.78755336  0.10083287  0.37520422     0.14700
H1559       H  0.71959421  0.09910318  0.37513350     0.14700
H1560       H  0.77903299  0.11481797  0.12294426     0.14700
H1561       H  0.71097415  0.11431349  0.12314806     0.14700
H1562       H  0.77471116  0.12389067  0.99810454     0.27900
H1563       H  0.71621991  0.12475682  0.99857199     0.27900
C1564       C  0.60046318  0.40096826  0.40369585    -0.00700
N1565       N  0.01004069  0.29853204  0.37800522    -0.34800
N1566       N  0.95542655  0.24881093  0.38442774    -0.55400
N1567       N  0.00796792  0.19698624  0.37745458    -0.34800
N1568       N  0.55938570  0.24836145  0.37957536    -0.55400
C1569       C  0.98186346  0.31819335  0.37334962     0.28800
C1570       C  0.53500119  0.31713477  0.36706089     0.28800
C1571       C  0.97845056  0.17938198  0.37195991     0.28800
C1572       C  0.53048306  0.17986480  0.37963058     0.28800
C1573       C  0.93926443  0.27700571  0.39633087     0.37400
C1574       C  0.93836925  0.22113693  0.39678762     0.37400
C1575       C  0.57916812  0.27621104  0.38537780     0.37400
C1576       C  0.57659810  0.22130701  0.39218076     0.37400
C1577       C  0.99153639  0.34837892  0.35697953    -0.20100
C1578       C  0.52495985  0.34621869  0.34951398    -0.20100
C1579       C  0.98550270  0.15054007  0.35226999    -0.20100
C1580       C  0.51917882  0.14883180  0.36642001    -0.20100
C1581       C  0.91096679  0.26718740  0.41570991    -0.21200
C1582       C  0.91044521  0.23173276  0.41604456    -0.21200
C1583       C  0.60966441  0.26684483  0.40105632    -0.21200
C1584       C  0.60800874  0.23178429  0.40542154    -0.21200
C1585       C  0.94932614  0.31110665  0.38816604    -0.16500
C1586       C  0.56925028  0.30963161  0.37653958    -0.16500
C1587       C  0.56434628  0.18741561  0.38989485    -0.16500
C1588       C  0.94713250  0.18684332  0.38874014    -0.16500
H1589       H  0.97626033  0.37032709  0.35051629     0.16400
H1590       H  0.54149321  0.36505910  0.33741778     0.16400
H1591       H  0.96858493  0.13038167  0.34375159     0.16400
H1592       H  0.53368826  0.12681932  0.35848654     0.16400
H1593       H  0.89254884  0.28373845  0.42810688     0.14700
H1594       H  0.89147764  0.21570378  0.42856943     0.14700
H1595       H  0.63059244  0.28348322  0.40887982     0.14700
H1596       H  0.62758612  0.21589463  0.41686021     0.14700
H1597       H  0.01142804  0.27634710  0.39264294     0.27900
H1598       H  0.01112903  0.21756581  0.39414750     0.27900
C1599       C  0.60522901  0.09793529  0.39707205    -0.00700
N1600       N  0.62512321  0.48992867  0.20147354    -0.34800
N1601       N  0.62504393  0.04870895  0.24579172    -0.55400
N1602       N  0.62467278  0.49179786  0.30283238    -0.34800
N1603       N  0.63952681  0.43794504  0.25373173    -0.55400
C1604       C  0.62498920  0.02145861  0.17671600     0.28800
C1605       C  0.64057171  0.46395472  0.18493079     0.28800
C1606       C  0.64369440  0.02523144  0.31474603     0.28800
C1607       C  0.63935065  0.46684632  0.32170808     0.28800
C1608       C  0.60927997  0.06488914  0.21948727     0.37400
C1609       C  0.61946430  0.06750479  0.27435100     0.37400
C1610       C  0.63340281  0.41762491  0.22657349     0.37400
C1611       C  0.63368957  0.41861432  0.28164801     0.37400
C1612       C  0.63948106  0.01222240  0.14554696    -0.20100
C1613       C  0.65516452  0.47564022  0.15493555    -0.20100
C1614       C  0.66336638  0.01641683  0.34304377    -0.20100
C1615       C  0.65145099  0.48034860  0.35215361    -0.20100
C1616       C  0.59404927  0.09463862  0.23122362    -0.21200
C1617       C  0.60060936  0.09636806  0.26603065    -0.21200
C1618       C  0.62452449  0.38486898  0.23706384    -0.21200
C1619       C  0.62475588  0.38547656  0.27232789    -0.21200
C1620       C  0.61075611  0.05367036  0.18496448    -0.16500
C1621       C  0.63539757  0.42920930  0.19275034    -0.16500
C1622       C  0.63576317  0.43142666  0.31508401    -0.16500
C1623       C  0.63149504  0.05851453  0.30749912    -0.16500
H1624       H  0.64443727  0.02777117  0.12327761     0.16400
H1625       H  0.66878361  0.46072606  0.13611734     0.16400
H1626       H  0.67468502  0.03356815  0.36175123     0.16400
H1627       H  0.66317121  0.46655120  0.37313486     0.16400
H1628       H  0.57998090  0.11321330  0.21628791     0.14700
H1629       H  0.59207247  0.11630063  0.28324425     0.14700
H1630       H  0.61797595  0.36313857  0.22108644     0.14700
H1631       H  0.61827387  0.36429978  0.28903719     0.14700
H1632       H  0.60934288  0.48737257  0.22287281     0.27900
H1633       H  0.61062392  0.48809100  0.28046594     0.27900
C1634       C  0.59628842  0.10304688  0.09821370    -0.00700
C1635       C  0.59522362  0.39729098  0.10754052    -0.00700
N1636       N  0.99465677  0.30040297  0.12760606    -0.34800
N1637       N  0.93947633  0.25043819  0.13695881    -0.55400
N1638       N  0.99118045  0.19841465  0.12586484    -0.34800
N1639       N  0.54881264  0.24894299  0.14014113    -0.55400
C1640       C  0.96783336  0.31939956  0.13840711     0.28800
C1641       C  0.52209269  0.31807327  0.14815766     0.28800
C1642       C  0.96484501  0.18053086  0.13976621     0.28800
C1643       C  0.52332051  0.17887148  0.14422926     0.28800
C1644       C  0.92040962  0.27816360  0.12958560     0.37400
C1645       C  0.91885122  0.22297107  0.13216622     0.37400
C1646       C  0.56787694  0.27714415  0.13358449     0.37400
C1647       C  0.56846081  0.22181159  0.13193993     0.37400
C1648       C  0.97985626  0.34914757  0.15373658    -0.20100
C1649       C  0.51138172  0.34760763  0.16461598    -0.20100
C1650       C  0.97671863  0.14951703  0.15205134    -0.20100
C1651       C  0.51306698  0.14839071  0.15935772    -0.20100
C1652       C  0.88723999  0.26839573  0.12076203    -0.21200
C1653       C  0.88622796  0.23321577  0.12249933    -0.21200
C1654       C  0.60010503  0.26795155  0.12162165    -0.21200
C1655       C  0.60046793  0.23272184  0.12056806    -0.21200
C1656       C  0.93286033  0.31197612  0.13150478    -0.16500
C1657       C  0.55641067  0.31080441  0.13931404    -0.16500
C1658       C  0.55771467  0.18752419  0.13565500    -0.16500
C1659       C  0.92976568  0.18895632  0.13597545    -0.16500
H1660       H  0.96466605  0.36973144  0.16430814     0.16400
H1661       H  0.52742476  0.36775702  0.17515894     0.16400
H1662       H  0.96168679  0.12928882  0.16375183     0.16400
H1663       H  0.52942784  0.12816592  0.16871489     0.16400
H1664       H  0.86612254  0.28477378  0.11351903     0.14700
H1665       H  0.86426355  0.21708509  0.11669502     0.14700
H1666       H  0.62107329  0.28474604  0.11428352     0.14700
H1667       H  0.62175342  0.21704766  0.11228200     0.14700
H1668       H  0.99285766  0.27838429  0.11273678     0.27900
H1669       H  0.98925340  0.22099639  0.11191737     0.27900
C1670       C  0.57140456  0.36737509  0.11561080    -0.14700
C1671       C  0.58064711  0.33986914  0.13431270    -0.29800
H1672       H  0.54563285  0.36765453  0.10475981     0.14400
H1673       H  0.60676157  0.33734295  0.14354946     0.14900
C1674       C  0.58280646  0.15952196  0.12872912    -0.14700
C1675       C  0.57378721  0.13333722  0.10814565    -0.29800
H1676       H  0.60860927  0.16130957  0.13906578     0.14400
H1677       H  0.54770260  0.13365477  0.09802530     0.14900
C1678       C  0.62651653  0.40597115  0.16408735    -0.14700
C1679       C  0.60335148  0.41627068  0.14055328    -0.29800
H1680       H  0.63942748  0.38156038  0.16200593     0.14400
H1681       H  0.59101632  0.44073454  0.14491508     0.14900
C1682       C  0.61180401  0.08568734  0.12985077    -0.14700
C1683       C  0.59398388  0.07397484  0.15704529    -0.29800
H1684       H  0.63959091  0.08329499  0.13089909     0.14400
H1685       H  0.56644391  0.07800415  0.15836343     0.14900
C1686       C  0.61475569  0.07400842  0.36713512    -0.14700
C1687       C  0.62830330  0.08357645  0.33646940    -0.29800
H1688       H  0.60820166  0.04712604  0.36998198     0.14400
H1689       H  0.63471689  0.11016332  0.33147958     0.14900
C1690       C  0.59333538  0.13234437  0.38339317    -0.14700
C1691       C  0.58475331  0.15871263  0.40351521    -0.29800
H1692       H  0.59006497  0.13568824  0.35598578     0.14400
H1693       H  0.58765641  0.15691211  0.43100548     0.14900
C1694       C  0.60770769  0.41854177  0.36955393    -0.14700
C1695       C  0.62912313  0.40817889  0.34456389    -0.29800
H1696       H  0.59487859  0.44256078  0.36460470     0.14400
H1697       H  0.64064763  0.38314881  0.34457206     0.14900
C1698       C  0.59347529  0.33893281  0.38191920    -0.14700
C1699       C  0.58208511  0.36680866  0.39867259    -0.29800
H1700       H  0.61967552  0.33704773  0.37292456     0.14400
H1701       H  0.55612140  0.36492799  0.40896857     0.14900
C1702       C  0.65343827  0.13323609  0.08411234    -0.14700
C1703       C  0.62574281  0.11429762  0.07452106    -0.29800
H1704       H  0.65622279  0.14124418  0.11055794     0.14400
H1705       H  0.62552267  0.10449932  0.04843205     0.14900
C1706       C  0.63590698  0.10287374  0.42035428    -0.14700
C1707       C  0.66353882  0.12164438  0.41156589    -0.29800
H1708       H  0.63465192  0.09244236  0.44617867     0.14400
H1709       H  0.66607224  0.13152706  0.38568320     0.14900
C1710       C  0.90487543  0.16046695  0.12989508    -0.14700
C1711       C  0.91310322  0.13606138  0.10701268    -0.29800
H1712       H  0.88040003  0.16005670  0.14319069     0.14400
H1713       H  0.93769030  0.13892655  0.09396306     0.14900
C1714       C  0.86256835  0.11392522  0.07461372    -0.14700
C1715       C  0.83588672  0.13401273  0.08373795    -0.29800
H1716       H  0.86233009  0.10282282  0.04904498     0.14400
H1717       H  0.83384618  0.14356803  0.10972854     0.14900
C1718       C  0.89500884  0.07673623  0.15740187    -0.14700
C1719       C  0.87680221  0.08776965  0.13043931    -0.29800
H1720       H  0.92258857  0.08094371  0.15822343     0.14400
H1721       H  0.84899958  0.08522346  0.13194889     0.14900
C1722       C  0.91463667  0.13200487  0.38313616    -0.14700
C1723       C  0.92667304  0.15758357  0.40302872    -0.29800
H1724       H  0.91541563  0.13595575  0.35567238     0.14400
H1725       H  0.92387391  0.15595555  0.43061668     0.14900
C1726       C  0.84262311  0.12545910  0.41188175    -0.14700
C1727       C  0.86908452  0.10519425  0.41994878    -0.29800
H1728       H  0.84065039  0.13659331  0.38650732     0.14400
H1729       H  0.86923996  0.09365460  0.44533917     0.14900
C1730       C  0.88761696  0.07601701  0.36605108    -0.14700
C1731       C  0.87058145  0.08671713  0.33776507    -0.29800
H1732       H  0.89492391  0.04927407  0.36616986     0.14400
H1733       H  0.86409970  0.11348275  0.33454432     0.14900
C1734       C  0.62819374  0.38364034  0.09182294    -0.14700
C1735       C  0.65559601  0.40316603  0.08407845    -0.29800
H1736       H  0.63024607  0.35622636  0.08756024     0.14400
H1737       H  0.65512311  0.43040689  0.08911991     0.14900
C1738       C  0.66174429  0.38127920  0.41671389    -0.14700
C1739       C  0.63273366  0.39787008  0.42549119    -0.29800
H1740       H  0.66518054  0.36979567  0.39187244     0.14400
H1741       H  0.63235387  0.40998534  0.45062620     0.14900
C1742       C  0.87074389  0.40856090  0.15871286    -0.14700
C1743       C  0.89298771  0.41818564  0.13396763    -0.29800
H1744       H  0.85728830  0.38440354  0.15850967     0.14400
H1745       H  0.90671855  0.44197176  0.13870121     0.14900
C1746       C  0.91821478  0.36691287  0.10499789    -0.14700
C1747       C  0.90878282  0.34082787  0.12551462    -0.29800
H1748       H  0.94319679  0.36463945  0.09264336     0.14400
H1749       H  0.88374260  0.33988765  0.13738118     0.14900
C1750       C  0.86534485  0.39628330  0.07988289    -0.14700
C1751       C  0.83729660  0.37756601  0.08882500    -0.29800
H1752       H  0.86366183  0.41039713  0.05589420     0.14400
H1753       H  0.83587543  0.36339159  0.11247235     0.13400
C1754       C  0.86619165  0.38540648  0.41253560    -0.14700
C1755       C  0.84211928  0.40604928  0.42552283    -0.29800
H1756       H  0.86165380  0.35795919  0.41441153     0.14400
H1757       H  0.84405049  0.43356002  0.42199313     0.14900
C1758       C  0.86560950  0.41039238  0.33888986    -0.14700
C1759       C  0.88737806  0.42015290  0.36381251    -0.29800
H1760       H  0.85545764  0.38443551  0.33836692     0.14400
H1761       H  0.89762723  0.44595755  0.36183594     0.14900
C1762       C  0.91716559  0.36622817  0.38041059    -0.14700
C1763       C  0.92832238  0.34054725  0.40077765    -0.29800
H1764       H  0.92054809  0.36368961  0.35290984     0.14400
H1765       H  0.92260629  0.34136668  0.42798303     0.14900
N1766       N  0.53602370  0.43568770  0.53944848    -0.04300
N1767       N  0.55759124  0.41072287  0.54693985    -0.56500
N1768       N  0.95848214  0.45984209  0.56243775    -0.04000
N1769       N  0.93771603  0.45200458  0.58798951    -0.58600
N1770       N  0.95775870  0.43556621  0.53900553    -0.03600
N1771       N  0.93628045  0.41088604  0.54836461    -0.56400
N1772       N  0.53715963  0.45969785  0.56306901    -0.03300
N1773       N  0.55930731  0.45119022  0.58715829    -0.58900
C1774       C  0.57206744  0.42048339  0.57699426     0.97800
C1775       C  0.92383394  0.42139626  0.57910503     0.97600
N1776       N  0.95850755  0.06238691  0.54158182    -0.04500
N1777       N  0.93715199  0.08727381  0.54950306    -0.57000
N1778       N  0.53809215  0.04688120  0.56557998    -0.02600
N1779       N  0.56043438  0.05453395  0.59016623    -0.58300
N1780       N  0.53845685  0.07072414  0.54164347    -0.04600
N1781       N  0.56095220  0.09493656  0.54977874    -0.57300
N1782       N  0.95824037  0.03891835  0.56586261    -0.02300
N1783       N  0.93649806  0.04750776  0.59058929    -0.58400
Mn1784     Mn  0.49869112  0.50141808  0.56434463     1.18400
C1785       C  0.92327911  0.07777359  0.57998880     0.99900
C1786       C  0.57469339  0.08467169  0.58008649     1.00600
N1787       N  0.95764968  0.43611842  0.95641302    -0.04600
N1788       N  0.93559764  0.41151595  0.94744310    -0.60900
N1789       N  0.54034616  0.45916056  0.93586344    -0.03400
N1790       N  0.56196660  0.45266467  0.91064980    -0.61600
N1791       N  0.54132043  0.43460724  0.95892290    -0.04100
N1792       N  0.56366157  0.41081737  0.94930254    -0.61100
N1793       N  0.95783570  0.46064420  0.93331866    -0.03000
N1794       N  0.93587038  0.45323385  0.90859370    -0.61800
Mn1795     Mn  0.99722010  0.43647303  0.99775202     1.10700
C1796       C  0.92169811  0.42263149  0.91749224     1.01100
C1797       C  0.57681695  0.42254835  0.91907569     1.01200
N1798       N  0.53683547  0.06470856  0.95720642    -0.04100
N1799       N  0.55907388  0.08931921  0.94978125    -0.59500
N1800       N  0.95534238  0.04358203  0.93669702    -0.03400
N1801       N  0.93474832  0.05191871  0.91130476    -0.56200
N1802       N  0.95605755  0.06823870  0.95971628    -0.04700
N1803       N  0.93568866  0.09367561  0.95017312    -0.59000
N1804       N  0.53720892  0.04099272  0.93317283    -0.03700
N1805       N  0.55978504  0.04931496  0.90898009    -0.56200
Mn1806     Mn  0.49941429  0.07155678  0.49940263     1.20200
Mn1807     Mn  0.99280838  0.00125897  0.93652604     1.10100
Cl1808     Cl  0.49904798  0.00584981  0.49995408    -0.84200
C1809       C  0.57348876  0.07958455  0.91967963     0.98100
C1810       C  0.92219382  0.08309566  0.91982253     0.97900
C1811       C  0.89742276  0.40175669  0.89376471    -0.00700
C1812       C  0.90053825  0.39928781  0.60221141    -0.00700
N1813       N  0.80106524  0.38014891  0.50624538    -0.34800
N1814       N  0.74802787  0.39285513  0.95001408    -0.55400
N1815       N  0.69880915  0.37475658  0.50374130    -0.34800
N1816       N  0.74861204  0.36858094  0.55814821    -0.55400
C1817       C  0.81673532  0.37898105  0.97540695     0.28800
C1818       C  0.81866143  0.36641546  0.53253843     0.28800
C1819       C  0.67743399  0.38468070  0.97376696     0.28800
C1820       C  0.68013080  0.36238234  0.53014294     0.28800
C1821       C  0.77662458  0.40263747  0.93286935     0.37400
C1822       C  0.72070164  0.40334273  0.93145718     0.37400
C1823       C  0.77607035  0.37434494  0.57851005     0.37400
C1824       C  0.72029507  0.37405094  0.57732225     0.37400
C1825       C  0.84526141  0.35937756  0.98370848    -0.20100
C1826       C  0.84938500  0.35300983  0.52083033    -0.20100
C1827       C  0.64622350  0.36980011  0.98292306    -0.20100
C1828       C  0.65154197  0.34487733  0.51800138    -0.20100
C1829       C  0.76746282  0.41834719  0.90244299    -0.21200
C1830       C  0.73196380  0.41871632  0.90150370    -0.21200
C1831       C  0.76527765  0.38299970  0.61120999    -0.21200
C1832       C  0.72971512  0.38287364  0.61043933    -0.21200
C1833       C  0.81049067  0.39520550  0.94374067    -0.16500
C1834       C  0.81038897  0.37105180  0.56733430    -0.16500
C1835       C  0.68645537  0.36986647  0.56481883    -0.16500
C1836       C  0.68606492  0.39726375  0.94099571    -0.16500
H1837       H  0.86597290  0.35090053  0.96754843     0.16400
H1838       H  0.86938957  0.34109437  0.53588217     0.16400
H1839       H  0.62472619  0.36207531  0.96735684     0.16400
H1840       H  0.63147532  0.33269734  0.53295948     0.16400
H1841       H  0.78441910  0.42720887  0.88241345     0.14700
H1842       H  0.71640673  0.42821270  0.88074932     0.14700
H1843       H  0.78126943  0.38891085  0.63314428     0.14700
H1844       H  0.71282975  0.38855145  0.63170412     0.14700
H1845       H  0.77868000  0.39451911  0.50810078     0.27900
H1846       H  0.71984016  0.39126574  0.50561891     0.27900
C1847       C  0.89528344  0.10259754  0.89836476    -0.00700
N1848       N  0.85986020  0.49897759  0.79778511    -0.34800
N1849       N  0.85631779  0.44373911  0.74837256    -0.55400
N1850       N  0.86948838  0.49581103  0.69629891    -0.34800
N1851       N  0.87563089  0.04903070  0.74911837    -0.55400
C1852       C  0.84874834  0.47207018  0.81662836     0.28800
C1853       C  0.85589989  0.02745673  0.81873411     0.28800
C1854       C  0.85816616  0.46856607  0.67820819     0.28800
C1855       C  0.87597980  0.02055981  0.67995084     0.28800
C1856       C  0.86245800  0.42524944  0.77678635     0.37400
C1857       C  0.86519290  0.42370586  0.72178590     0.37400
C1858       C  0.88054771  0.06888370  0.77710181     0.37400
C1859       C  0.89096777  0.06512237  0.72240076     0.37400
C1860       C  0.83230667  0.48376034  0.84576271    -0.20100
C1861       C  0.83606133  0.01927841  0.84723398    -0.20100
C1862       C  0.84707056  0.47900675  0.64624316    -0.20100
C1863       C  0.86332845  0.01044866  0.64817974    -0.20100
C1864       C  0.87460498  0.39305231  0.76823833    -0.21200
C1865       C  0.87622780  0.39204273  0.73311204    -0.21200
C1866       C  0.89866891  0.09822922  0.76799319    -0.21200
C1867       C  0.90529406  0.09580791  0.73330249    -0.21200
C1868       C  0.85711453  0.43753176  0.81011554    -0.16500
C1869       C  0.86814843  0.06077407  0.81035614    -0.16500
C1870       C  0.88959541  0.05323653  0.68810602    -0.16500
C1871       C  0.86356051  0.43419821  0.68758586    -0.16500
H1872       H  0.82206243  0.46860990  0.86651080     0.16400
H1873       H  0.82474004  0.03686314  0.86539173     0.16400
H1874       H  0.83762766  0.46297761  0.62561048     0.16400
H1875       H  0.86004507  0.02519971  0.62512121     0.16400
H1876       H  0.88202811  0.37265674  0.78540288     0.14700
H1877       H  0.88519398  0.37080956  0.71777085     0.14700
H1878       H  0.90649654  0.11910427  0.78453047     0.14700
H1879       H  0.91865395  0.11464654  0.71785260     0.14700
H1880       H  0.87588275  0.49759267  0.77652518     0.27900
H1881       H  0.88224647  0.49491404  0.71969088     0.27900
C1882       C  0.89965431  0.10146634  0.60062547    -0.00700
N1883       N  0.80391355  0.13276261  0.49892057    -0.34800
N1884       N  0.74641047  0.14030155  0.94405717    -0.55400
N1885       N  0.70059063  0.13049158  0.49872304    -0.34800
N1886       N  0.75163790  0.13733497  0.55234468    -0.55400
C1887       C  0.81629131  0.14595743  0.96961977     0.28800
C1888       C  0.82228305  0.14286384  0.52654200     0.28800
C1889       C  0.67599190  0.14811025  0.96997169     0.28800
C1890       C  0.68192999  0.14145029  0.52577383     0.28800
C1891       C  0.77394650  0.13072944  0.92531693     0.37400
C1892       C  0.71830131  0.13191529  0.92554227     0.37400
C1893       C  0.77944767  0.13072622  0.57193550     0.37400
C1894       C  0.72365667  0.13033784  0.57175636     0.37400
C1895       C  0.84661217  0.16195374  0.97950044    -0.20100
C1896       C  0.85280850  0.15805067  0.51593174    -0.20100
C1897       C  0.64560293  0.16387766  0.97954799    -0.20100
C1898       C  0.65248804  0.15760365  0.51433554    -0.20100
C1899       C  0.76336558  0.11664945  0.89446589    -0.21200
C1900       C  0.72797441  0.11741822  0.89459701    -0.21200
C1901       C  0.76910090  0.11993150  0.60420024    -0.21200
C1902       C  0.73365850  0.11975693  0.60409207    -0.21200
C1903       C  0.80831099  0.13537227  0.93591234    -0.16500
C1904       C  0.81383031  0.13513595  0.56093279    -0.16500
C1905       C  0.68943105  0.13429850  0.56040196    -0.16500
C1906       C  0.68422480  0.13786579  0.93629080    -0.16500
H1907       H  0.86728256  0.17066955  0.96312074     0.16400
H1908       H  0.87313738  0.16825429  0.53196772     0.16400
H1909       H  0.62543342  0.17301867  0.96284775     0.16400
H1910       H  0.63243471  0.16893995  0.52977103     0.16400
H1911       H  0.77935642  0.10656067  0.87419599     0.14700
H1912       H  0.71134064  0.10802544  0.87441314     0.14700
H1913       H  0.78527808  0.11271528  0.62551875     0.14700
H1914       H  0.71722572  0.11240318  0.62524700     0.14700
H1915       H  0.78136793  0.11832814  0.49938185     0.27900
H1916       H  0.72251044  0.11536841  0.49972519     0.27900
C1917       C  0.59806132  0.40090945  0.89352672    -0.00700
N1918       N  0.00832573  0.30222473  0.87665671    -0.34800
N1919       N  0.95299317  0.25241837  0.88196139    -0.55400
N1920       N  0.00545118  0.20048908  0.87820408    -0.34800
N1921       N  0.55527526  0.25139722  0.85741805    -0.55400
C1922       C  0.98008440  0.32102474  0.86966400     0.28800
C1923       C  0.52788226  0.31977285  0.85064031     0.28800
C1924       C  0.97608411  0.18259752  0.87248471     0.28800
C1925       C  0.52895230  0.18152234  0.85706024     0.28800
C1926       C  0.93675260  0.28095809  0.89285933     0.37400
C1927       C  0.93524630  0.22517743  0.89436894     0.37400
C1928       C  0.57459228  0.27963809  0.86327645     0.37400
C1929       C  0.57516360  0.22422635  0.86490833     0.37400
C1930       C  0.98974814  0.34974849  0.85088490    -0.20100
C1931       C  0.51621562  0.34843576  0.83342864    -0.20100
C1932       C  0.98372005  0.15308736  0.85414237    -0.20100
C1933       C  0.51764143  0.15035281  0.84446537    -0.20100
C1934       C  0.90773508  0.27181258  0.91149093    -0.21200
C1935       C  0.90679127  0.23640613  0.91244202    -0.21200
C1936       C  0.60727775  0.27037678  0.87383822    -0.21200
C1937       C  0.60764354  0.23508869  0.87480700    -0.21200
C1938       C  0.94748350  0.31478830  0.88461072    -0.16500
C1939       C  0.56253151  0.31334094  0.85883437    -0.16500
C1940       C  0.56376696  0.18999150  0.86282346    -0.16500
C1941       C  0.94412667  0.19061703  0.88778867    -0.16500
H1942       H  0.97413312  0.37052675  0.84184403     0.16400
H1943       H  0.53163262  0.36850307  0.82186512     0.16400
H1944       H  0.96692804  0.13269648  0.84588542     0.16400
H1945       H  0.53314928  0.13008277  0.83393236     0.16400
H1946       H  0.88910513  0.28878062  0.92297315     0.14700
H1947       H  0.88730266  0.22080450  0.92472954     0.14700
H1948       H  0.62848278  0.28713550  0.88053826     0.14700
H1949       H  0.62910523  0.21933017  0.88242853     0.14700
H1950       H  0.00942777  0.28132295  0.89318408     0.27900
H1951       H  0.00808068  0.22179112  0.89409379     0.27900
C1952       C  0.59766797  0.10326133  0.89898610    -0.00700
N1953       N  0.62389712  0.49390474  0.69475454    -0.34800
N1954       N  0.60939935  0.04645170  0.74989221    -0.55400
N1955       N  0.63346288  0.49586040  0.79619916    -0.34800
N1956       N  0.63663064  0.44136265  0.74611935    -0.55400
C1957       C  0.62265544  0.02329467  0.67976271     0.28800
C1958       C  0.63532809  0.46713865  0.67608776     0.28800
C1959       C  0.62145971  0.02208154  0.82034057     0.28800
C1960       C  0.64499767  0.46874979  0.81410246     0.28800
C1961       C  0.59768923  0.06337859  0.72194960     0.37400
C1962       C  0.59662044  0.06240976  0.77786956     0.37400
C1963       C  0.62886989  0.42129569  0.71918808     0.37400
C1964       C  0.63031353  0.42245231  0.77425422     0.37400
C1965       C  0.63909310  0.01525762  0.64914862    -0.20100
C1966       C  0.64565362  0.47849672  0.64408132    -0.20100
C1967       C  0.63843351  0.01479613  0.85090425    -0.20100
C1968       C  0.66341270  0.47980853  0.84234387    -0.20100
C1969       C  0.57815487  0.09107105  0.73229601    -0.21200
C1970       C  0.57740796  0.09041746  0.76769616    -0.21200
C1971       C  0.61831846  0.38912882  0.73008405    -0.21200
C1972       C  0.61903944  0.38993537  0.76530427    -0.21200
C1973       C  0.60605939  0.05465993  0.68756174    -0.16500
C1974       C  0.63120772  0.43222661  0.68511330    -0.16500
C1975       C  0.63547634  0.43458120  0.80761542    -0.16500
C1976       C  0.60418010  0.05302557  0.81221695    -0.16500
H1977       H  0.64381933  0.03095526  0.62698051     0.16400
H1978       H  0.65516010  0.46314220  0.62306225     0.16400
H1979       H  0.64335745  0.03094932  0.87270943     0.16400
H1980       H  0.67475144  0.46419736  0.86202422     0.16400
H1981       H  0.56604742  0.10996751  0.71616063     0.14700
H1982       H  0.56465085  0.10876915  0.78398781     0.14700
H1983       H  0.61035570  0.36765049  0.71438985     0.14700
H1984       H  0.61199646  0.36913597  0.78227330     0.14700
H1985       H  0.61185247  0.49245237  0.71849156     0.27900
H1986       H  0.61619431  0.49481023  0.77585787     0.27900
C1987       C  0.60105416  0.10626914  0.60032886    -0.00700
C1988       C  0.59555992  0.39721396  0.59871860    -0.00700
N1989       N  0.99720879  0.30018578  0.63248226    -0.34800
N1990       N  0.94326322  0.24942602  0.63902055    -0.55400
N1991       N  0.99751288  0.19779580  0.63445615    -0.34800
N1992       N  0.54931987  0.24757832  0.63765252    -0.55400
C1993       C  0.96979490  0.31903428  0.64209879     0.28800
C1994       C  0.52551884  0.31811329  0.63927719     0.28800
C1995       C  0.96975052  0.17975573  0.64507288     0.28800
C1996       C  0.52115715  0.17798597  0.64818061     0.28800
C1997       C  0.92373947  0.27682709  0.63133134     0.37400
C1998       C  0.92385365  0.22147242  0.63241125     0.37400
C1999       C  0.56960376  0.27423761  0.62844908     0.37400
C2000       C  0.56778343  0.21888690  0.63253693     0.37400
C2001       C  0.98093966  0.34946159  0.65676458    -0.20100
C2002       C  0.51620329  0.34935111  0.65328210    -0.20100
C2003       C  0.98033666  0.14976889  0.66072169    -0.20100
C2004       C  0.50970577  0.14759942  0.66272752    -0.20100
C2005       C  0.89143857  0.26634711  0.62046690    -0.21200
C2006       C  0.89151981  0.23108567  0.62109613    -0.21200
C2007       C  0.60146487  0.26253034  0.61795465    -0.21200
C2008       C  0.60034344  0.22732468  0.62064850    -0.21200
C2009       C  0.93513149  0.31096649  0.63449108    -0.16500
C2010       C  0.55954932  0.30883395  0.63063571    -0.16500
C2011       C  0.55583009  0.18550696  0.64006781    -0.16500
C2012       C  0.93524219  0.18761464  0.63693850    -0.16500
H2013       H  0.96518738  0.37007555  0.66641409     0.16400
H2014       H  0.53311560  0.36984924  0.66157556     0.16400
H2015       H  0.96418221  0.12988319  0.67143599     0.16400
H2016       H  0.52513258  0.12656194  0.67177389     0.16400
H2017       H  0.87026086  0.28234096  0.61254449     0.14700
H2018       H  0.87036489  0.21451001  0.61376461     0.14700
H2019       H  0.62317580  0.27769403  0.60932974     0.14700
H2020       H  0.62106117  0.20997602  0.61458387     0.14700
H2021       H  0.99649295  0.27760680  0.61831896     0.27900
H2022       H  0.99702549  0.21981415  0.61950658     0.27900
C2023       C  0.57579949  0.36364944  0.60380774    -0.14700
C2024       C  0.58497479  0.33689490  0.62364520    -0.29800
H2025       H  0.55062477  0.36178983  0.59174878     0.14400
H2026       H  0.60999023  0.33575069  0.63561478     0.14900
C2027       C  0.57967053  0.15611785  0.63730687    -0.14700
C2028       C  0.58441221  0.14102224  0.60666499    -0.29800
H2029       H  0.58918275  0.14485813  0.66078450     0.14400
H2030       H  0.57413362  0.15400250  0.58425711     0.14900
C2031       C  0.62470783  0.40716106  0.65720760    -0.14700
C2032       C  0.60169097  0.41521706  0.63289008    -0.29800
H2033       H  0.63848931  0.38331790  0.65736979     0.14400
H2034       H  0.58721143  0.43825063  0.63812756     0.14900
C2035       C  0.61351821  0.08854422  0.63334603    -0.14700
C2036       C  0.59297544  0.07635342  0.65853886    -0.29800
H2037       H  0.64105315  0.08554533  0.63668258     0.14400
H2038       H  0.56554312  0.08099616  0.65719428     0.14900
C2039       C  0.61057489  0.08675075  0.86590688    -0.14700
C2040       C  0.59025585  0.07415631  0.84097699    -0.29800
H2041       H  0.63817841  0.08508361  0.86212104     0.14400
H2042       H  0.56263138  0.07740174  0.84265681     0.14900
C2043       C  0.57771486  0.13571337  0.89132801    -0.14700
C2044       C  0.58784087  0.16136042  0.87029566    -0.29800
H2045       H  0.55251198  0.13798026  0.90318388     0.14400
H2046       H  0.61286200  0.16120246  0.85815441     0.14900
C2047       C  0.60644199  0.42184347  0.86163486    -0.14700
C2048       C  0.62838461  0.41176391  0.83699612    -0.29800
H2049       H  0.59524245  0.44707175  0.85881436     0.14400
H2050       H  0.64054071  0.38692780  0.83781801     0.14900
C2051       C  0.58605065  0.34303149  0.86497407    -0.14700
C2052       C  0.57560421  0.37018607  0.88373573    -0.29800
H2053       H  0.61256223  0.34107959  0.85683594     0.14400
H2054       H  0.54945179  0.36956551  0.89363427     0.14900
C2055       C  0.66024106  0.13032687  0.58512059    -0.14700
C2056       C  0.63202797  0.11166435  0.57682092    -0.29800
H2057       H  0.66244493  0.14144040  0.61053456     0.14400
H2058       H  0.63159550  0.09934840  0.55180962     0.14900
C2059       C  0.62827891  0.11174443  0.92181327    -0.14700
C2060       C  0.65552568  0.13100326  0.91209197    -0.29800
H2061       H  0.62851014  0.10111263  0.94758119     0.14400
H2062       H  0.65800865  0.13981270  0.88590539     0.14900
C2063       C  0.91107014  0.15873985  0.63003936    -0.14700
C2064       C  0.92088005  0.13313667  0.60918851    -0.29800
H2065       H  0.88561395  0.15902361  0.64128398     0.14400
H2066       H  0.94663851  0.13479166  0.59835803     0.14900
C2067       C  0.86976046  0.11041652  0.57703649    -0.14700
C2068       C  0.84244300  0.12970156  0.58578817    -0.29800
H2069       H  0.86970308  0.09924256  0.55148969     0.14400
H2070       H  0.83971296  0.13909031  0.61175043     0.14900
C2071       C  0.90469492  0.07423600  0.65977559    -0.14700
C2072       C  0.88548864  0.08479181  0.63316921    -0.29800
H2073       H  0.93220118  0.07895233  0.65982174     0.14400
H2074       H  0.85780118  0.08132166  0.63515178     0.14900
C2075       C  0.91109668  0.13560579  0.88366878    -0.14700
C2076       C  0.92307457  0.16193901  0.90267391    -0.29800
H2077       H  0.91299155  0.13819537  0.85613284     0.14400
H2078       H  0.91950770  0.16151944  0.93022822     0.14900
C2079       C  0.83688415  0.12807211  0.91139631    -0.14700
C2080       C  0.86487392  0.11053087  0.92143253    -0.29800
H2081       H  0.83437182  0.13589022  0.88484223     0.14400
H2082       H  0.86590104  0.10161621  0.94780728     0.14900
C2083       C  0.88352151  0.07839383  0.86945903    -0.14700
C2084       C  0.87124606  0.08713582  0.83826331    -0.29800
H2085       H  0.88776962  0.05133586  0.87345549     0.14400
H2086       H  0.86685123  0.11378232  0.83198200     0.14900
C2087       C  0.62895122  0.39248250  0.57859477    -0.14700
C2088       C  0.65626429  0.37327024  0.58799600    -0.29800
H2089       H  0.63094190  0.40591574  0.55423797     0.14400
H2090       H  0.65696608  0.35956436  0.61190749     0.14900
C2091       C  0.65726439  0.40963131  0.91919788    -0.14700
C2092       C  0.63146924  0.38865898  0.90951066    -0.29800
H2093       H  0.65557655  0.43689145  0.91420247     0.14400
H2094       H  0.63509022  0.36127691  0.91268640     0.14900
C2095       C  0.87164195  0.40938190  0.66012673    -0.14700
C2096       C  0.89465270  0.41808876  0.63585733    -0.29800
H2097       H  0.85836476  0.38510226  0.66023899     0.14400
H2098       H  0.90828422  0.44203843  0.64009874     0.14900
C2099       C  0.91993463  0.36586487  0.60788578    -0.14700
C2100       C  0.91063797  0.33961914  0.62840175    -0.29800
H2101       H  0.94489178  0.36361158  0.59547572     0.14400
H2102       H  0.88577177  0.33868348  0.64067254     0.14900
C2103       C  0.86681616  0.39489559  0.58287046    -0.14700
C2104       C  0.83962935  0.37492763  0.59165792    -0.29800
H2105       H  0.86443056  0.40942187  0.55918300     0.14400
H2106       H  0.83885585  0.36034778  0.61507900     0.13400
C2107       C  0.86530897  0.38873431  0.91209479    -0.14700
C2108       C  0.84050511  0.40907540  0.92437360    -0.29800
H2109       H  0.86085451  0.36127179  0.91303676     0.14400
H2110       H  0.84240494  0.43658448  0.92079225     0.14900
C2111       C  0.86421334  0.41439801  0.83939670    -0.14700
C2112       C  0.88606713  0.42453705  0.86412127    -0.29800
H2113       H  0.85457344  0.38824469  0.83899953     0.14400
H2114       H  0.89592391  0.45052622  0.86237721     0.14900
C2115       C  0.91653293  0.37084375  0.87904734    -0.14700
C2116       C  0.92773956  0.34453428  0.89841503    -0.29800
H2117       H  0.91945076  0.36908707  0.85146242     0.14400
H2118       H  0.92229091  0.34461913  0.92569537     0.14900
N2119       N  0.53451171  0.93535784  0.03866968    -0.04300
N2120       N  0.55674700  0.91109147  0.04635526    -0.56500
N2121       N  0.95486416  0.96118514  0.06660359    -0.04000
N2122       N  0.93378038  0.95288017  0.09178848    -0.58600
N2123       N  0.95432789  0.93726215  0.04281274    -0.03600
N2124       N  0.93279024  0.91241070  0.05149891    -0.56400
N2125       N  0.53485557  0.95934803  0.06232981    -0.03300
N2126       N  0.55706266  0.95160664  0.08659404    -0.58900
C2127       C  0.57076512  0.92139356  0.07649400     0.97800
C2128       C  0.91998300  0.92236817  0.08222632     0.97600
N2129       N  0.95904848  0.56708983  0.03950469    -0.04500
N2130       N  0.93614806  0.59081376  0.04684837    -0.57000
N2131       N  0.54001768  0.54215768  0.06624145    -0.02600
N2132       N  0.56181559  0.55007964  0.09115346    -0.58300
N2133       N  0.53996501  0.56630304  0.04262309    -0.04600
N2134       N  0.56142794  0.59122478  0.05154941    -0.57300
N2135       N  0.95877612  0.54324024  0.06342894    -0.02300
N2136       N  0.93563762  0.55047911  0.08734310    -0.58400
Mn2137     Mn  0.49598085  0.00017854  0.06350972     1.18400
C2138       C  0.92141561  0.58024569  0.07662773     0.99900
C2139       C  0.57513524  0.58085166  0.08185772     1.00600
N2140       N  0.95554220  0.93169088  0.45837793    -0.04600
N2141       N  0.93329601  0.90757635  0.44857054    -0.60900
N2142       N  0.53803489  0.96507921  0.43542059    -0.03400
N2143       N  0.56067320  0.95786031  0.41131659    -0.61600
N2144       N  0.53835168  0.94149826  0.45940547    -0.04100
N2145       N  0.56126966  0.91783383  0.45210643    -0.61100
N2146       N  0.95623519  0.95656137  0.43560720    -0.03000
N2147       N  0.93461013  0.94997967  0.41044072    -0.61800
Mn2148     Mn  0.99521402  0.93118867  0.50029791     1.10700
C2149       C  0.92004839  0.91948094  0.41854413     1.01100
C2150       C  0.57528019  0.92833248  0.42203086     1.01200
N2151       N  0.53895589  0.56533615  0.45726269    -0.04100
N2152       N  0.56153623  0.58951996  0.44965444    -0.59500
N2153       N  0.96083588  0.54121884  0.43148635    -0.03400
N2154       N  0.93945991  0.54910947  0.40652242    -0.56200
N2155       N  0.96097902  0.56556458  0.45487624    -0.04700
N2156       N  0.93952801  0.59035324  0.44598018    -0.59000
N2157       N  0.53905653  0.54144682  0.43344921    -0.03700
N2158       N  0.56173508  0.54915697  0.40916425    -0.56200
Mn2159     Mn  0.50117850  0.56610123  0.00005359     1.20200
Mn2160     Mn  0.99876323  0.49890211  0.43182567     1.10100
Cl2161     Cl  0.50142085  0.49997361  0.00086525    -0.84200
C2162       C  0.57582776  0.57928113  0.41965197     0.98100
C2163       C  0.92592205  0.57973498  0.41566587     0.97900
C2164       C  0.89486733  0.90016696  0.39459591    -0.00700
C2165       C  0.89645907  0.89968121  0.10459268    -0.00700
N2166       N  0.79994760  0.87549633  0.00517989    -0.34800
N2167       N  0.75040313  0.88723541  0.45399073    -0.55400
N2168       N  0.69686865  0.87280511  0.00230695    -0.34800
N2169       N  0.74633709  0.86615669  0.05710745    -0.55400
C2170       C  0.82021049  0.88130921  0.48058361     0.28800
C2171       C  0.81727281  0.86314558  0.03238206     0.28800
C2172       C  0.68049783  0.87068699  0.47559847     0.28800
C2173       C  0.67754372  0.86147030  0.02880449     0.28800
C2174       C  0.77781702  0.90115743  0.43792046     0.37400
C2175       C  0.72268794  0.89336265  0.43412870     0.37400
C2176       C  0.77373648  0.87259283  0.07741696     0.37400
C2177       C  0.71799262  0.87296685  0.07588908     0.37400
C2178       C  0.85103540  0.86515074  0.48812417    -0.20100
C2179       C  0.84834299  0.84971388  0.02174680    -0.20100
C2180       C  0.65108442  0.85213536  0.48377685    -0.20100
C2181       C  0.64845005  0.84486055  0.01657106    -0.20100
C2182       C  0.76760377  0.91580542  0.40724830    -0.21200
C2183       C  0.73255259  0.91072170  0.40476296    -0.21200
C2184       C  0.76284414  0.88299231  0.10955443    -0.21200
C2185       C  0.72736867  0.88330305  0.10856532    -0.21200
C2186       C  0.81202659  0.89746724  0.44931739    -0.16500
C2187       C  0.80821520  0.86873499  0.06689619    -0.16500
C2188       C  0.68404699  0.86905634  0.06356467    -0.16500
C2189       C  0.68900228  0.88251028  0.44234153    -0.16500
H2190       H  0.87285179  0.86061449  0.47174468     0.16400
H2191       H  0.86822620  0.83869794  0.03762836     0.16400
H2192       H  0.63186669  0.84217465  0.46630343     0.16400
H2193       H  0.62786666  0.83351657  0.03148896     0.16400
H2194       H  0.78378130  0.92778904  0.38817278     0.14700
H2195       H  0.71630946  0.91872823  0.38378455     0.14700
H2196       H  0.77875244  0.89000044  0.13122727     0.14700
H2197       H  0.71051177  0.89053877  0.12936368     0.14700
H2198       H  0.77736949  0.88960722  0.00616630     0.27900
H2199       H  0.71852015  0.88848304  0.00407602     0.27900
C2200       C  0.89773302  0.59854122  0.39511281    -0.00700
N2201       N  0.85887547  0.00017624  0.29991730    -0.34800
N2202       N  0.85213332  0.94504558  0.25038906    -0.55400
N2203       N  0.86572531  0.99664437  0.19809825    -0.34800
N2204       N  0.87236486  0.54824244  0.24549325    -0.55400
C2205       C  0.84716246  0.97364523  0.31895472     0.28800
C2206       C  0.85545699  0.52462710  0.31529440     0.28800
C2207       C  0.85361693  0.96966893  0.18003207     0.28800
C2208       C  0.86926815  0.52184647  0.17620153     0.28800
C2209       C  0.85786927  0.92628048  0.27873838     0.37400
C2210       C  0.85934613  0.92451987  0.22362036     0.37400
C2211       C  0.87879748  0.56705938  0.27385451     0.37400
C2212       C  0.88714416  0.56481007  0.21874335     0.37400
C2213       C  0.83137377  0.98586660  0.34823426    -0.20100
C2214       C  0.83693197  0.51591698  0.34447406    -0.20100
C2215       C  0.84275485  0.98041295  0.14809749    -0.20100
C2216       C  0.85407126  0.51267329  0.14524975    -0.20100
C2217       C  0.86797197  0.89344188  0.26997333    -0.21200
C2218       C  0.86881398  0.89230796  0.23481472    -0.21200
C2219       C  0.89721537  0.59629859  0.26498253    -0.21200
C2220       C  0.90260285  0.59479589  0.23001713    -0.21200
C2221       C  0.85402590  0.93881132  0.31222880    -0.16500
C2222       C  0.86765542  0.55806276  0.30730055    -0.16500
C2223       C  0.88436531  0.55386554  0.18424534    -0.16500
C2224       C  0.85786395  0.93507721  0.18936994    -0.16500
H2225       H  0.82054678  0.97099953  0.36894733     0.16400
H2226       H  0.82686990  0.53312222  0.36370682     0.16400
H2227       H  0.83284483  0.96463456  0.12748837     0.16400
H2228       H  0.84930960  0.52793694  0.12281898     0.16400
H2229       H  0.87456254  0.87266205  0.28701856     0.14700
H2230       H  0.87624498  0.87057645  0.21935144     0.14700
H2231       H  0.90613642  0.61643232  0.28189345     0.14700
H2232       H  0.91591482  0.61375385  0.21465844     0.14700
H2233       H  0.87451895  0.99824638  0.27843032     0.27900
H2234       H  0.87845014  0.99543697  0.22147364     0.27900
C2235       C  0.89657146  0.60290859  0.09716394    -0.00700
N2236       N  0.80128015  0.63614430  0.99684448    -0.34800
N2237       N  0.74936985  0.63429101  0.44371649    -0.55400
N2238       N  0.69819394  0.63061487  0.99779364    -0.34800
N2239       N  0.74947182  0.63965605  0.05089744    -0.55400
C2240       C  0.81938318  0.63988964  0.46804798     0.28800
C2241       C  0.81961997  0.64663224  0.02427927     0.28800
C2242       C  0.67982926  0.64563387  0.46975311     0.28800
C2243       C  0.67922618  0.64051400  0.02507075     0.28800
C2244       C  0.77635693  0.62361859  0.42490426     0.37400
C2245       C  0.72092743  0.62678934  0.42542231     0.37400
C2246       C  0.77763594  0.63345672  0.07005034     0.37400
C2247       C  0.72205311  0.63155352  0.07059391     0.37400
C2248       C  0.84938166  0.65717347  0.47654273    -0.20100
C2249       C  0.84981108  0.66233508  0.01352309    -0.20100
C2250       C  0.65017809  0.66274098  0.47924992    -0.20100
C2251       C  0.64863308  0.65464037  0.01394599    -0.20100
C2252       C  0.76513205  0.60951424  0.39427940    -0.21200
C2253       C  0.72981554  0.61157871  0.39457787    -0.21200
C2254       C  0.76809217  0.62196989  0.10231254    -0.21200
C2255       C  0.73274963  0.62084139  0.10267656    -0.21200
C2256       C  0.81082211  0.62823946  0.43485318    -0.16500
C2257       C  0.81167389  0.63840760  0.05856346    -0.16500
C2258       C  0.68765584  0.63413864  0.05967226    -0.16500
C2259       C  0.68734083  0.63460232  0.43617480    -0.16500
H2260       H  0.86924983  0.66602368  0.45931732     0.16400
H2261       H  0.87006783  0.67281133  0.02947896     0.16400
H2262       H  0.63017348  0.67226332  0.46256528     0.16400
H2263       H  0.62810215  0.66481501  0.02955888     0.16400
H2264       H  0.78066544  0.59887621  0.37393555     0.14700
H2265       H  0.71273061  0.60275680  0.37450827     0.14700
H2266       H  0.78474153  0.61472552  0.12325646     0.14700
H2267       H  0.71688019  0.61250390  0.12389568     0.14700
H2268       H  0.77912405  0.62112529  0.99753453     0.27900
H2269       H  0.72107501  0.61700401  0.99855537     0.27900
C2270       C  0.60008499  0.90618588  0.40110470    -0.00700
N2271       N  0.00526822  0.80154296  0.37426930    -0.34800
N2272       N  0.95118570  0.75075449  0.38087096    -0.55400
N2273       N  0.00413262  0.69946698  0.37367594    -0.34800
N2274       N  0.55823463  0.75341758  0.36778923    -0.55400
C2275       C  0.97676132  0.82073280  0.36978042     0.28800
C2276       C  0.53073950  0.82187896  0.36417798     0.28800
C2277       C  0.97492282  0.68111365  0.36880330     0.28800
C2278       C  0.53218406  0.68410828  0.36061307     0.28800
C2279       C  0.93460284  0.77881300  0.39260593     0.37400
C2280       C  0.93409279  0.72286305  0.39284018     0.37400
C2281       C  0.57713122  0.78114460  0.37660777     0.37400
C2282       C  0.57786864  0.72574271  0.37405060     0.37400
C2283       C  0.98586666  0.85096531  0.35312655    -0.20100
C2284       C  0.51951974  0.85062374  0.34676795    -0.20100
C2285       C  0.98265037  0.65164135  0.35034258    -0.20100
C2286       C  0.52098532  0.65446359  0.34457897    -0.20100
C2287       C  0.90600564  0.76869090  0.41138196    -0.21200
C2288       C  0.90571961  0.73324175  0.41156324    -0.21200
C2289       C  0.60923012  0.77110228  0.38821895    -0.21200
C2290       C  0.60969576  0.73580738  0.38655584    -0.21200
C2291       C  0.94444747  0.81311722  0.38490000    -0.16500
C2292       C  0.56553575  0.81509559  0.37287124    -0.16500
C2293       C  0.56686129  0.69184241  0.36799705    -0.16500
C2294       C  0.94329092  0.68849605  0.38516266    -0.16500
H2295       H  0.97017934  0.87258103  0.34653389     0.16400
H2296       H  0.53526318  0.87064818  0.33558428     0.16400
H2297       H  0.96610807  0.63091679  0.34246865     0.16400
H2298       H  0.53666051  0.63529310  0.33223228     0.16400
H2299       H  0.88717672  0.78505119  0.42341848     0.14700
H2300       H  0.88659853  0.71705593  0.42365084     0.14700
H2301       H  0.63000929  0.78734473  0.39714820     0.14700
H2302       H  0.63081594  0.71950533  0.39398256     0.14700
H2303       H  0.00705121  0.77946754  0.38900561     0.27900
H2304       H  0.00687828  0.72084378  0.38942554     0.27900
C2305       C  0.60005034  0.60266431  0.39885300    -0.00700
N2306       N  0.62208935  0.99340340  0.19686317    -0.34800
N2307       N  0.61468501  0.54341965  0.25063285    -0.55400
N2308       N  0.63332764  0.99651480  0.29829147    -0.34800
N2309       N  0.63518018  0.94122342  0.24874469    -0.55400
C2310       C  0.62876712  0.51817615  0.18171974     0.28800
C2311       C  0.63396961  0.96652801  0.17869087     0.28800
C2312       C  0.62604159  0.52100261  0.32147387     0.28800
C2313       C  0.64506248  0.96961407  0.31649732     0.28800
C2314       C  0.60249295  0.55890843  0.22210740     0.37400
C2315       C  0.60098860  0.55974999  0.27796111     0.37400
C2316       C  0.62648280  0.92110817  0.22192719     0.37400
C2317       C  0.62917053  0.92276128  0.27740778     0.37400
C2318       C  0.64725136  0.50964881  0.15241899    -0.20100
C2319       C  0.64590679  0.97778412  0.14718438    -0.20100
C2320       C  0.64248204  0.51420786  0.35244727    -0.20100
C2321       C  0.66382577  0.98121253  0.34438832    -0.20100
C2322       C  0.58167241  0.58606779  0.23138254    -0.21200
C2323       C  0.58071338  0.58657833  0.26677371    -0.21200
C2324       C  0.61554731  0.88931859  0.23345966    -0.21200
C2325       C  0.61711274  0.89041065  0.26878927    -0.21200
C2326       C  0.61156071  0.54938136  0.18815674    -0.16500
C2327       C  0.62847668  0.93174778  0.18744793    -0.16500
C2328       C  0.63502971  0.93525781  0.31087837    -0.16500
C2329       C  0.60836033  0.55152392  0.31261717    -0.16500
H2330       H  0.65396215  0.52499298  0.13054908     0.16400
H2331       H  0.65613796  0.96231254  0.12659721     0.16400
H2332       H  0.64671670  0.53060679  0.37421393     0.16400
H2333       H  0.67549393  0.96586581  0.36425469     0.16400
H2334       H  0.56871196  0.60379500  0.21454133     0.14700
H2335       H  0.56690991  0.60477077  0.28239728     0.14700
H2336       H  0.60681823  0.86787591  0.21812918     0.14700
H2337       H  0.60997381  0.86988029  0.28602814     0.14700
H2338       H  0.60896682  0.99207350  0.22008492     0.27900
H2339       H  0.61591745  0.99514424  0.27809548     0.27900
C2340       C  0.60263187  0.60121102  0.10194499    -0.00700
C2341       C  0.59397786  0.89848012  0.09863800    -0.00700
N2342       N  0.99331116  0.79987687  0.13002602    -0.34800
N2343       N  0.93944306  0.74948481  0.13910220    -0.55400
N2344       N  0.99223641  0.69799189  0.12519834    -0.34800
N2345       N  0.54799303  0.74788076  0.12388690    -0.55400
C2346       C  0.96666767  0.81846514  0.14205622     0.28800
C2347       C  0.52361581  0.81738224  0.13767804     0.28800
C2348       C  0.96640352  0.67993520  0.13969159     0.28800
C2349       C  0.52198786  0.67865194  0.12884005     0.28800
C2350       C  0.91955495  0.77708264  0.13337689     0.37400
C2351       C  0.91935871  0.72171663  0.13391738     0.37400
C2352       C  0.56695814  0.77603442  0.11703637     0.37400
C2353       C  0.56487560  0.72110582  0.11016043     0.37400
C2354       C  0.97890237  0.84789434  0.15776857    -0.20100
C2355       C  0.51448454  0.84722066  0.15464036    -0.20100
C2356       C  0.97873719  0.64894684  0.15158034    -0.20100
C2357       C  0.51378275  0.64803926  0.14504341    -0.20100
C2358       C  0.88634990  0.76688492  0.12524243    -0.21200
C2359       C  0.88621190  0.73158550  0.12563551    -0.21200
C2360       C  0.59667907  0.76710137  0.09964296    -0.21200
C2361       C  0.59524504  0.73209605  0.09509141    -0.21200
C2362       C  0.93155143  0.81108120  0.13597032    -0.16500
C2363       C  0.55740314  0.80940424  0.12664209    -0.16500
C2364       C  0.55375717  0.68690199  0.11339240    -0.16500
C2365       C  0.93119100  0.68783924  0.13636817    -0.16500
H2366       H  0.96388335  0.86811873  0.16924597     0.16400
H2367       H  0.53152180  0.86712998  0.16403642     0.16400
H2368       H  0.96409705  0.62860508  0.16355401     0.16400
H2369       H  0.53025391  0.62666680  0.15067340     0.16400
H2370       H  0.86466857  0.78307161  0.11934529     0.14700
H2371       H  0.86442800  0.71515549  0.11998995     0.14700
H2372       H  0.61696105  0.78401947  0.09080053     0.14700
H2373       H  0.61444956  0.71652497  0.08259158     0.14700
H2374       H  0.99136124  0.77819951  0.11466693     0.27900
H2375       H  0.98969058  0.72065921  0.11146242     0.27900
C2376       C  0.57314950  0.86578475  0.10421397    -0.14700
C2377       C  0.58257857  0.83796325  0.12205535    -0.29800
H2378       H  0.54735580  0.86498853  0.09334785     0.14400
H2379       H  0.60824247  0.83532622  0.13227779     0.14900
C2380       C  0.57384618  0.65894957  0.09738859    -0.14700
C2381       C  0.58772709  0.63413687  0.11643137    -0.29800
H2382       H  0.57514352  0.65776727  0.06964700     0.14400
H2383       H  0.58771608  0.63772316  0.14407977     0.14900
C2384       C  0.62119198  0.90698333  0.15893570    -0.14700
C2385       C  0.60091974  0.91691208  0.13266757    -0.29800
H2386       H  0.63231065  0.88174021  0.15993407     0.14400
H2387       H  0.58871582  0.94147422  0.13636173     0.14900
C2388       C  0.61709010  0.58088501  0.13220079    -0.14700
C2389       C  0.59769932  0.56950545  0.15861271    -0.29800
H2390       H  0.64474099  0.57806618  0.13380409     0.14400
H2391       H  0.57042438  0.57524701  0.15874372     0.14900
C2392       C  0.61331140  0.58604979  0.36590507    -0.14700
C2393       C  0.59356820  0.57306291  0.34073797    -0.29800
H2394       H  0.64095210  0.58432061  0.36250408     0.14400
H2395       H  0.56591108  0.57648551  0.34166842     0.14900
C2396       C  0.57989461  0.63502778  0.39133268    -0.14700
C2397       C  0.59080119  0.66258059  0.37335352    -0.29800
H2398       H  0.55398643  0.63610177  0.40178124     0.14400
H2399       H  0.61660813  0.66406056  0.36311048     0.14900
C2400       C  0.60993145  0.92534390  0.36814101    -0.14700
C2401       C  0.62805326  0.91296147  0.34133415    -0.29800
H2402       H  0.60138194  0.95160337  0.36564622     0.14400
H2403       H  0.63587156  0.88648314  0.34051364     0.14900
C2404       C  0.59019455  0.84445574  0.37836323    -0.14700
C2405       C  0.57950344  0.87330597  0.39392052    -0.29800
H2406       H  0.61696515  0.84150391  0.37147829     0.14400
H2407       H  0.55288860  0.87303834  0.40254144     0.14900
C2408       C  0.65941898  0.62865679  0.08502055    -0.14700
C2409       C  0.63177317  0.60922499  0.07712880    -0.29800
H2410       H  0.66220568  0.63872925  0.11081321     0.14400
H2411       H  0.63045757  0.59807479  0.05161846     0.14900
C2412       C  0.63048470  0.61096129  0.42190900    -0.14700
C2413       C  0.65837986  0.62910804  0.41207114    -0.29800
H2414       H  0.63033750  0.60061569  0.44780217     0.14400
H2415       H  0.66138272  0.63739587  0.38575834     0.14900
C2416       C  0.90720952  0.65886839  0.12945454    -0.14700
C2417       C  0.91649564  0.63506311  0.10627189    -0.29800
H2418       H  0.88286455  0.65731666  0.14289100     0.14400
H2419       H  0.94094547  0.63892541  0.09321817     0.14900
C2420       C  0.86701626  0.61211998  0.07350929    -0.14700
C2421       C  0.84049025  0.63224719  0.08267509    -0.29800
H2422       H  0.86676473  0.60108816  0.04790354     0.14400
H2423       H  0.83844242  0.64177163  0.10864989     0.14900
C2424       C  0.90030207  0.57448180  0.15601893    -0.14700
C2425       C  0.88182158  0.58545995  0.12910830    -0.29800
H2426       H  0.92779861  0.57918999  0.15676790     0.14400
H2427       H  0.85406470  0.58265438  0.13072239     0.14900
C2428       C  0.91165659  0.63260400  0.38081606    -0.14700
C2429       C  0.92319820  0.65905208  0.40001423    -0.29800
H2430       H  0.91243372  0.63592745  0.35329780     0.14400
H2431       H  0.92070923  0.65786261  0.42765317     0.14900
C2432       C  0.83880730  0.62154395  0.40963002    -0.14700
C2433       C  0.86752904  0.60484216  0.41891671    -0.29800
H2434       H  0.83547233  0.62962151  0.38325202     0.14400
H2435       H  0.86944330  0.59578077  0.44519267     0.14900
C2436       C  0.88622728  0.57458216  0.36582963    -0.14700
C2437       C  0.87176036  0.58372264  0.33568847    -0.29800
H2438       H  0.89193422  0.54761335  0.36861750     0.14400
H2439       H  0.86601966  0.61033364  0.33043547     0.14900
C2440       C  0.62682472  0.89253336  0.07786307    -0.14700
C2441       C  0.65419238  0.87352918  0.08727544    -0.29800
H2442       H  0.62831022  0.90481733  0.05287277     0.14400
H2443       H  0.65564210  0.86203187  0.11234953     0.14900
C2444       C  0.66102653  0.88526701  0.41611277    -0.14700
C2445       C  0.63123663  0.90071762  0.42431440    -0.29800
H2446       H  0.66574149  0.87619807  0.39035361     0.14400
H2447       H  0.62979092  0.91138131  0.45005642     0.14900
C2448       C  0.86551596  0.91014311  0.16170568    -0.14700
C2449       C  0.88946076  0.91837326  0.13814350    -0.29800
H2450       H  0.85145414  0.88626649  0.16109336     0.14400
H2451       H  0.90356146  0.94191324  0.14308522     0.14900
C2452       C  0.91637942  0.86661315  0.11062308    -0.14700
C2453       C  0.90728630  0.84021030  0.13105471    -0.29800
H2454       H  0.94127049  0.86455357  0.09805648     0.14400
H2455       H  0.88257352  0.83941950  0.14369889     0.14900
C2456       C  0.86346592  0.89434169  0.08408878    -0.14700
C2457       C  0.83683643  0.87330220  0.09190434    -0.29800
H2458       H  0.86136327  0.90866155  0.06025133     0.14400
H2459       H  0.83596880  0.85868199  0.11532938     0.13400
C2460       C  0.86280809  0.88878736  0.41347490    -0.14700
C2461       C  0.84069554  0.91052955  0.42799694    -0.29800
H2462       H  0.85700056  0.86153714  0.41494399     0.14400
H2463       H  0.84427010  0.93800255  0.42537803     0.14900
C2464       C  0.86068616  0.91525772  0.34134279    -0.14700
C2465       C  0.88407287  0.92382335  0.36529549    -0.29800
H2466       H  0.84926917  0.88981440  0.34133922     0.14400
H2467       H  0.89559171  0.94911456  0.36320043     0.14900
C2468       C  0.91231053  0.86850907  0.37952497    -0.14700
C2469       C  0.92363347  0.84212346  0.39876738    -0.29800
H2470       H  0.91491157  0.86678076  0.35188239     0.14400
H2471       H  0.91856330  0.84218058  0.42611183     0.14900
N2472       N  0.53841241  0.94098339  0.54047046    -0.04300
N2473       N  0.55996554  0.91615261  0.54829364    -0.56500
N2474       N  0.95767000  0.95655448  0.56592876    -0.04000
N2475       N  0.93781751  0.94808580  0.59204749    -0.58600
N2476       N  0.95646466  0.93253637  0.54216498    -0.03600
N2477       N  0.93560117  0.90749025  0.55191150    -0.56400
N2478       N  0.53825376  0.96449161  0.56462652    -0.03300
N2479       N  0.55967620  0.95584416  0.58935347    -0.58900
C2480       C  0.57323215  0.92555761  0.57900291     0.97800
C2481       C  0.92410869  0.91736690  0.58322793     0.97600
N2482       N  0.95965696  0.56513337  0.53811921    -0.04500
N2483       N  0.93728498  0.58941911  0.54535535    -0.57000
N2484       N  0.53905622  0.54240321  0.56353981    -0.02600
N2485       N  0.56184492  0.55069324  0.58757508    -0.58300
N2486       N  0.53881618  0.56589213  0.53931394    -0.04600
N2487       N  0.56137638  0.59030054  0.54644624    -0.57300
N2488       N  0.95905239  0.54160255  0.56230054    -0.02300
N2489       N  0.93620723  0.54953699  0.58627375    -0.58400
Mn2490     Mn  0.49862925  0.00532079  0.56544938     1.18400
C2491       C  0.92241948  0.57941426  0.57530996     0.99900
C2492       C  0.57597036  0.58063111  0.57648613     1.00600
N2493       N  0.95282613  0.93630907  0.96066387    -0.04600
N2494       N  0.93246351  0.91052305  0.95164420    -0.60900
N2495       N  0.53599530  0.95888200  0.93445925    -0.03400
N2496       N  0.55968475  0.95179316  0.91140582    -0.61600
N2497       N  0.53535442  0.93507913  0.95824481    -0.04100
N2498       N  0.55888381  0.91162953  0.95196938    -0.61100
N2499       N  0.95255407  0.96030451  0.93695038    -0.03000
N2500       N  0.93204147  0.95106295  0.91146559    -0.61800
Mn2501     Mn  0.99289814  0.93645319  0.00127557     1.10700
C2502       C  0.91927156  0.92000815  0.92091811     1.01100
C2503       C  0.57397456  0.92215345  0.92242081     1.01200
N2504       N  0.54060274  0.56523800  0.95791248    -0.04100
N2505       N  0.56283216  0.58915651  0.94785643    -0.59500
N2506       N  0.95912562  0.54302846  0.93312291    -0.03400
N2507       N  0.93720884  0.54982678  0.90829494    -0.56200
N2508       N  0.95937430  0.56790465  0.95596049    -0.04700
N2509       N  0.93741470  0.59210760  0.94666135    -0.59000
N2510       N  0.53964694  0.54032810  0.93514347    -0.03700
N2511       N  0.56101456  0.54667463  0.90969897    -0.56200
Mn2512     Mn  0.49913923  0.56664951  0.49812585     1.20200
Mn2513     Mn  0.99774820  0.50186904  0.93299631     1.10100
Cl2514     Cl  0.49794295  0.50125446  0.49873857    -0.84200
C2515       C  0.57562236  0.57712922  0.91764766     0.98100
C2516       C  0.92348086  0.58043025  0.91679404     0.97900
C2517       C  0.90085648  0.89507262  0.89640954    -0.00700
C2518       C  0.90139442  0.89477610  0.60649783    -0.00700
N2519       N  0.80061516  0.88279253  0.50907563    -0.34800
N2520       N  0.75090339  0.87695468  0.95030044    -0.55400
N2521       N  0.69770328  0.87888621  0.50466688    -0.34800
N2522       N  0.74845690  0.86947305  0.55968250    -0.55400
C2523       C  0.82018450  0.87110231  0.97736013     0.28800
C2524       C  0.81878487  0.86807597  0.53459663     0.28800
C2525       C  0.68001208  0.86425091  0.97327108     0.28800
C2526       C  0.67914989  0.86639252  0.53109454     0.28800
C2527       C  0.77875012  0.88907289  0.93331171     0.37400
C2528       C  0.72312079  0.88432688  0.93097499     0.37400
C2529       C  0.77591427  0.87300085  0.58071283     0.37400
C2530       C  0.72009331  0.87498396  0.57880323     0.37400
C2531       C  0.85053036  0.85527524  0.98716994    -0.20100
C2532       C  0.84971193  0.85609511  0.52194320    -0.20100
C2533       C  0.65008748  0.84644662  0.98140531    -0.20100
C2534       C  0.65006809  0.84973264  0.51888948    -0.20100
C2535       C  0.76868221  0.90362818  0.90256476    -0.21200
C2536       C  0.73333784  0.90048043  0.90101034    -0.21200
C2537       C  0.76499785  0.88009511  0.61370170    -0.21200
C2538       C  0.72949525  0.88153381  0.61247324    -0.21200
C2539       C  0.81301139  0.88498084  0.94472148    -0.16500
C2540       C  0.81040165  0.86978043  0.56976768    -0.16500
C2541       C  0.68610431  0.87276998  0.56598460    -0.16500
C2542       C  0.68895214  0.87582056  0.94010838    -0.16500
H2543       H  0.87264122  0.84882572  0.97192064     0.16400
H2544       H  0.87006550  0.84368788  0.53609153     0.16400
H2545       H  0.63089831  0.83660385  0.96382395     0.16400
H2546       H  0.62997779  0.83759283  0.53384843     0.16400
H2547       H  0.78502711  0.91492360  0.88315748     0.14700
H2548       H  0.71705727  0.90924744  0.88035515     0.14700
H2549       H  0.78090058  0.88419171  0.63609759     0.14700
H2550       H  0.71261685  0.88670315  0.63387198     0.14700
H2551       H  0.77783440  0.89636318  0.51152922     0.27900
H2552       H  0.71914610  0.89479123  0.50691048     0.27900
C2553       C  0.89585372  0.59896362  0.89537061    -0.00700
N2554       N  0.86563045  0.99826252  0.80291589    -0.34800
N2555       N  0.86272069  0.94248689  0.75375289    -0.55400
N2556       N  0.87722718  0.99306706  0.70096217    -0.34800
N2557       N  0.86762961  0.55130522  0.74501559    -0.55400
C2558       C  0.85311568  0.97181379  0.82156581     0.28800
C2559       C  0.85110770  0.52772626  0.81489995     0.28800
C2560       C  0.86577050  0.96583751  0.68282776     0.28800
C2561       C  0.86690341  0.52350123  0.67576920     0.28800
C2562       C  0.86679846  0.92408969  0.78263786     0.37400
C2563       C  0.86980574  0.92128936  0.72747421     0.37400
C2564       C  0.87377620  0.57036151  0.77337849     0.37400
C2565       C  0.88269615  0.56762164  0.71821939     0.37400
C2566       C  0.83500142  0.98410943  0.84943248    -0.20100
C2567       C  0.83320303  0.51891771  0.84440203    -0.20100
C2568       C  0.85618615  0.97620960  0.65032873    -0.20100
C2569       C  0.85311420  0.51354259  0.64438510    -0.20100
C2570       C  0.87590428  0.89074825  0.77476718    -0.21200
C2571       C  0.87771309  0.88894130  0.73954220    -0.21200
C2572       C  0.89202738  0.59964290  0.76437631    -0.21200
C2573       C  0.89777669  0.59783970  0.72943023    -0.21200
C2574       C  0.86057756  0.93707132  0.81563788    -0.16500
C2575       C  0.86332552  0.56106599  0.80707826    -0.16500
C2576       C  0.88133044  0.55583596  0.68379176    -0.16500
C2577       C  0.86871892  0.93125795  0.69292779    -0.16500
H2578       H  0.82262705  0.96926352  0.86937773     0.16400
H2579       H  0.82348825  0.53603905  0.86389142     0.16400
H2580       H  0.84671997  0.96032339  0.62960522     0.16400
H2581       H  0.84852612  0.52852018  0.62171698     0.16400
H2582       H  0.88052391  0.86997283  0.79248462     0.14700
H2583       H  0.88430747  0.86658833  0.72458889     0.14700
H2584       H  0.90085058  0.61985201  0.78124646     0.14700
H2585       H  0.91137253  0.61660537  0.71407731     0.14700
H2586       H  0.88265983  0.99627695  0.78249364     0.27900
H2587       H  0.88872855  0.99232039  0.72500169     0.27900
C2588       C  0.89880751  0.60308581  0.59625556    -0.00700
N2589       N  0.80110948  0.63298565  0.49674329    -0.34800
N2590       N  0.74996990  0.63442198  0.94368556    -0.55400
N2591       N  0.69794755  0.63702783  0.49793595    -0.34800
N2592       N  0.74973949  0.64192221  0.55091930    -0.55400
C2593       C  0.81981273  0.64433717  0.96869621     0.28800
C2594       C  0.81971021  0.64498961  0.52345123     0.28800
C2595       C  0.67963989  0.63773241  0.96944882     0.28800
C2596       C  0.67964964  0.64771041  0.52530240     0.28800
C2597       C  0.77784519  0.62735607  0.92453461     0.37400
C2598       C  0.72263525  0.62446245  0.92497034     0.37400
C2599       C  0.77789123  0.63519666  0.57013626     0.37400
C2600       C  0.72180739  0.63561565  0.57077821     0.37400
C2601       C  0.84988895  0.66089898  0.97831791    -0.20100
C2602       C  0.84959340  0.66045109  0.51157823    -0.20100
C2603       C  0.64898345  0.65291877  0.97880848    -0.20100
C2604       C  0.65005079  0.66401247  0.51441569    -0.20100
C2605       C  0.76824379  0.61343012  0.89328917    -0.21200
C2606       C  0.73303486  0.61158403  0.89356364    -0.21200
C2607       C  0.76783048  0.62519053  0.60272723    -0.21200
C2608       C  0.73229075  0.62540850  0.60311458    -0.21200
C2609       C  0.81169918  0.63392201  0.93500125    -0.16500
C2610       C  0.81227533  0.63850512  0.55825493    -0.16500
C2611       C  0.68725924  0.63954469  0.55966623    -0.16500
C2612       C  0.68850023  0.62804006  0.93569493    -0.16500
H2613       H  0.86998980  0.67040424  0.96172361     0.16400
H2614       H  0.86986336  0.67202748  0.52673838     0.16400
H2615       H  0.62908006  0.66200145  0.96206818     0.16400
H2616       H  0.62999067  0.67477307  0.53025201     0.16400
H2617       H  0.78480152  0.60519115  0.87262649     0.14700
H2618       H  0.71701710  0.60167764  0.87312337     0.14700
H2619       H  0.78424955  0.61806523  0.62389048     0.14700
H2620       H  0.71614892  0.61854422  0.62464170     0.14700
H2621       H  0.77891284  0.61806211  0.49828367     0.27900
H2622       H  0.71967778  0.62164751  0.49859285     0.27900
C2623       C  0.59939432  0.90004574  0.90176649    -0.00700
N2624       N  0.00417180  0.79864457  0.87074821    -0.34800
N2625       N  0.94974366  0.74725323  0.87363255    -0.55400
N2626       N  0.00326786  0.69746609  0.88047076    -0.34800
N2627       N  0.55942433  0.74616145  0.87852333    -0.55400
C2628       C  0.97648845  0.81580604  0.85895417     0.28800
C2629       C  0.53451919  0.81465170  0.86801819     0.28800
C2630       C  0.97514716  0.67819470  0.87392561     0.28800
C2631       C  0.53055862  0.67882997  0.87430169     0.28800
C2632       C  0.93090019  0.77571835  0.87809950     0.37400
C2633       C  0.93116713  0.72092213  0.88649443     0.37400
C2634       C  0.57891283  0.77385356  0.88572285     0.37400
C2635       C  0.57631670  0.71866777  0.89056283     0.37400
C2636       C  0.98731503  0.84423949  0.84054023    -0.20100
C2637       C  0.52426263  0.84347265  0.85018811    -0.20100
C2638       C  0.98489786  0.64690492  0.86048486    -0.20100
C2639       C  0.51937560  0.64967318  0.85729362    -0.20100
C2640       C  0.89959356  0.76736018  0.89310575    -0.21200
C2641       C  0.89985234  0.73243758  0.89859185    -0.21200
C2642       C  0.60903823  0.76398734  0.90184477    -0.21200
C2643       C  0.60731261  0.72869994  0.90505709    -0.21200
C2644       C  0.94199368  0.80876846  0.86829722    -0.16500
C2645       C  0.56890719  0.80741143  0.87735194    -0.16500
C2646       C  0.56395823  0.68498469  0.88642735    -0.16500
C2647       C  0.94197206  0.68664829  0.88510087    -0.16500
H2648       H  0.97130274  0.86346346  0.82870327     0.16400
H2649       H  0.54065018  0.86221746  0.83776044     0.16400
H2650       H  0.96935650  0.62521225  0.85309793     0.16400
H2651       H  0.53407221  0.62907910  0.84640963     0.16400
H2652       H  0.87893256  0.78457628  0.89968338     0.14700
H2653       H  0.87932700  0.71727119  0.90973384     0.14700
H2654       H  0.62972184  0.78042050  0.91067541     0.14700
H2655       H  0.62661108  0.71238369  0.91637617     0.14700
H2656       H  0.00371193  0.77821078  0.88783907     0.27900
H2657       H  0.00374146  0.72042957  0.89402535     0.27900
C2658       C  0.60368554  0.59467328  0.89585230    -0.00700
N2659       N  0.62049181  0.99465501  0.69931124    -0.34800
N2660       N  0.62600406  0.54856525  0.74445252    -0.55400
N2661       N  0.61959250  0.99313894  0.80132116    -0.34800
N2662       N  0.63463622  0.94125893  0.75071376    -0.55400
C2663       C  0.62578769  0.52205439  0.67461111     0.28800
C2664       C  0.63488692  0.96893083  0.68135813     0.28800
C2665       C  0.64394738  0.52420966  0.81310728     0.28800
C2666       C  0.63468883  0.96789689  0.81957279     0.28800
C2667       C  0.61101580  0.56544381  0.71816817     0.37400
C2668       C  0.62082438  0.56732290  0.77312323     0.37400
C2669       C  0.63011467  0.92136644  0.72288663     0.37400
C2670       C  0.63065183  0.92068005  0.77818846     0.37400
C2671       C  0.63894992  0.51289735  0.64281357    -0.20100
C2672       C  0.64727107  0.98125656  0.65052071    -0.20100
C2673       C  0.66328044  0.51495143  0.84146082    -0.20100
C2674       C  0.64730117  0.98094687  0.84998565    -0.20100
C2675       C  0.59682212  0.59567118  0.73004086    -0.21200
C2676       C  0.60311589  0.59690377  0.76491318    -0.21200
C2677       C  0.62416983  0.88769717  0.73258278    -0.21200
C2678       C  0.62457100  0.88725824  0.76788322    -0.21200
C2679       C  0.61214323  0.55442372  0.68355057    -0.16500
C2680       C  0.63124309  0.93377718  0.68912257    -0.16500
C2681       C  0.63206983  0.93252128  0.81214201    -0.16500
C2682       C  0.63216725  0.55759446  0.80627342    -0.16500
H2683       H  0.64282866  0.52849912  0.62036698     0.16400
H2684       H  0.65892972  0.96662399  0.63007364     0.16400
H2685       H  0.67456760  0.53177692  0.86047730     0.16400
H2686       H  0.65971857  0.96692584  0.87040535     0.16400
H2687       H  0.58359739  0.61488575  0.71514645     0.14700
H2688       H  0.59521769  0.61701857  0.78222145     0.14700
H2689       H  0.61959357  0.86588854  0.71606230     0.14700
H2690       H  0.62028889  0.86509829  0.78398635     0.14700
H2691       H  0.60638123  0.99165521  0.72169172     0.27900
H2692       H  0.60528859  0.98992232  0.77905510     0.27900
C2693       C  0.59937732  0.60489213  0.59743273    -0.00700
C2694       C  0.59624817  0.90208193  0.60087262    -0.00700
N2695       N  0.00131909  0.79775229  0.63633351    -0.34800
N2696       N  0.94742401  0.74636492  0.64131423    -0.55400
N2697       N  0.00141215  0.69491202  0.63729013    -0.34800
N2698       N  0.55177654  0.75199487  0.63568386    -0.55400
C2699       C  0.97361641  0.81658914  0.64528029     0.28800
C2700       C  0.52575949  0.82199604  0.64072271     0.28800
C2701       C  0.97340315  0.67597854  0.64574202     0.28800
C2702       C  0.52586526  0.68189249  0.64201211     0.28800
C2703       C  0.92774951  0.77387076  0.63448811     0.37400
C2704       C  0.92775792  0.71861415  0.63459988     0.37400
C2705       C  0.57096248  0.77977163  0.62761866     0.37400
C2706       C  0.57117238  0.72438326  0.62835415     0.37400
C2707       C  0.98446576  0.84741913  0.65929541    -0.20100
C2708       C  0.51565407  0.85242549  0.65590438    -0.20100
C2709       C  0.98380066  0.64494653  0.65930281    -0.20100
C2710       C  0.51543514  0.65164374  0.65749307    -0.20100
C2711       C  0.89522552  0.76365264  0.62410272    -0.21200
C2712       C  0.89523377  0.72848585  0.62410617    -0.21200
C2713       C  0.60293030  0.76986836  0.61566035    -0.21200
C2714       C  0.60306265  0.73464433  0.61610908    -0.21200
C2715       C  0.93890255  0.80797557  0.63810972    -0.16500
C2716       C  0.55995887  0.81380359  0.63180098    -0.16500
C2717       C  0.56032472  0.69021334  0.63321722    -0.16500
C2718       C  0.93884461  0.68459941  0.63822389    -0.16500
H2719       H  0.96849627  0.86813335  0.66834044     0.16400
H2720       H  0.53208628  0.87294631  0.66505785     0.16400
H2721       H  0.96754347  0.62419742  0.66807334     0.16400
H2722       H  0.53166332  0.63133956  0.66692041     0.16400
H2723       H  0.87388242  0.77979960  0.61697927     0.14700
H2724       H  0.87384146  0.71213443  0.61695811     0.14700
H2725       H  0.62383103  0.78624705  0.60725530     0.14700
H2726       H  0.62408932  0.71852139  0.60805022     0.14700
H2727       H  0.00091552  0.77488454  0.62266176     0.27900
H2728       H  0.00126258  0.71798229  0.62403130     0.27900
C2729       C  0.57598242  0.86884757  0.60567801    -0.14700
C2730       C  0.58479519  0.84236191  0.62588292    -0.29800
H2731       H  0.55098357  0.86701032  0.59323209     0.14400
H2732       H  0.60952193  0.84124887  0.63835336     0.14900
C2733       C  0.58548370  0.66195020  0.62702860    -0.14700
C2734       C  0.57671321  0.63534835  0.60685422    -0.29800
H2735       H  0.61132076  0.66401879  0.63726286     0.14400
H2736       H  0.55066440  0.63543422  0.59663796     0.14900
C2737       C  0.62492408  0.91006772  0.65996209    -0.14700
C2738       C  0.60252359  0.91945697  0.63534993    -0.29800
H2739       H  0.63882225  0.88632423  0.65914703     0.14400
H2740       H  0.58832712  0.94265113  0.64069924     0.14900
C2741       C  0.61438018  0.58758759  0.62928837    -0.14700
C2742       C  0.59603495  0.57567033  0.65600169    -0.29800
H2743       H  0.64210661  0.58457909  0.63058426     0.14400
H2744       H  0.56852578  0.57999494  0.65701981     0.14900
C2745       C  0.61347245  0.57139081  0.86554751    -0.14700
C2746       C  0.62864613  0.58172503  0.83587876    -0.29800
H2747       H  0.60540307  0.54478180  0.86670142     0.14400
H2748       H  0.63612299  0.60825478  0.83216500     0.14900
C2749       C  0.59080223  0.62865619  0.88196198    -0.14700
C2750       C  0.58219814  0.65547308  0.90141223    -0.29800
H2751       H  0.58886636  0.63199259  0.85446518     0.14400
H2752       H  0.58426480  0.65407128  0.92898221     0.14900
C2753       C  0.60557220  0.91756163  0.86715443    -0.14700
C2754       C  0.62685915  0.90826485  0.84150572    -0.29800
H2755       H  0.59167203  0.94099270  0.86234407     0.14400
H2756       H  0.63957620  0.88375280  0.84137107     0.14900
C2757       C  0.59311935  0.83700266  0.88192695    -0.14700
C2758       C  0.58148629  0.86544832  0.89764167    -0.29800
H2759       H  0.61919736  0.83522718  0.87250577     0.14400
H2760       H  0.55565439  0.86354369  0.90822812     0.14900
C2761       C  0.65774240  0.63362970  0.58392971    -0.14700
C2762       C  0.62932204  0.61571742  0.57403533    -0.29800
H2763       H  0.66052362  0.64148358  0.61042911     0.14400
H2764       H  0.62892976  0.60599833  0.54792751     0.14900
C2765       C  0.63443282  0.60037092  0.91886755    -0.14700
C2766       C  0.66089655  0.62086707  0.91054406    -0.29800
H2767       H  0.63406157  0.58908633  0.94436742     0.14400
H2768       H  0.66267218  0.63185088  0.88505893     0.14900
C2769       C  0.91378299  0.65658969  0.63079300    -0.14700
C2770       C  0.92127700  0.63346278  0.60650838    -0.29800
H2771       H  0.88901717  0.65616736  0.64358382     0.14400
H2772       H  0.94631963  0.63595359  0.59422939     0.14900
C2773       C  0.86952975  0.61420825  0.57256533    -0.14700
C2774       C  0.84191960  0.63301587  0.58223749    -0.29800
H2775       H  0.86952117  0.60386694  0.54669519     0.14400
H2776       H  0.83975686  0.64170483  0.60853553     0.14900
C2777       C  0.89931271  0.57518232  0.65580028    -0.14700
C2778       C  0.88253802  0.58569461  0.62761405    -0.29800
H2779       H  0.92676947  0.57957568  0.65800506     0.14400
H2780       H  0.85471411  0.58325357  0.62805904     0.14900
C2781       C  0.91058701  0.63208815  0.88083228    -0.14700
C2782       C  0.92071732  0.65877807  0.89999534    -0.29800
H2783       H  0.91358872  0.63440499  0.85326468     0.14400
H2784       H  0.91700642  0.65844764  0.92750125     0.14900
C2785       C  0.83983547  0.62734786  0.91029574    -0.14700
C2786       C  0.86576485  0.60647555  0.91878236    -0.29800
H2787       H  0.83824319  0.63799357  0.88466957     0.14400
H2788       H  0.86592299  0.59556798  0.94443870     0.14900
C2789       C  0.88435171  0.57557796  0.86560366    -0.14700
C2790       C  0.86866612  0.58571611  0.83621630    -0.29800
H2791       H  0.89148001  0.54882341  0.86692782     0.14400
H2792       H  0.86246090  0.61245455  0.83225517     0.14900
C2793       C  0.62961503  0.89707768  0.58077634    -0.14700
C2794       C  0.65617806  0.87660068  0.58946154    -0.29800
H2795       H  0.63212527  0.91117928  0.55684025     0.14400
H2796       H  0.65640315  0.86218013  0.61296711     0.14900
C2797       C  0.66078662  0.88020254  0.91465689    -0.14700
C2798       C  0.63204018  0.89741700  0.92321051    -0.29800
H2799       H  0.66402337  0.86891520  0.88964917     0.14400
H2800       H  0.63179360  0.90964799  0.94828149     0.14900
C2801       C  0.87398447  0.90557742  0.66530396    -0.14700
C2802       C  0.89818819  0.91203677  0.64140389    -0.29800
H2803       H  0.85659056  0.88395472  0.66351333     0.14400
H2804       H  0.91538775  0.93332619  0.64698450     0.14900
C2805       C  0.92045546  0.86089972  0.61000259    -0.14700
C2806       C  0.91365497  0.83614701  0.63302243    -0.29800
H2807       H  0.94392021  0.85777710  0.59513186     0.14400
H2808       H  0.89043233  0.83653435  0.64832253     0.14900
C2809       C  0.86677211  0.89227951  0.58800302    -0.14700
C2810       C  0.83976632  0.87127709  0.59477602    -0.29800
H2811       H  0.86377235  0.90908603  0.56594999     0.14400
H2812       H  0.83965397  0.85440598  0.61677067     0.13400
C2813       C  0.86834863  0.88039108  0.91311433    -0.14700
C2814       C  0.84205215  0.89958988  0.92427365    -0.29800
H2815       H  0.86633588  0.85283735  0.91635334     0.14400
H2816       H  0.84229608  0.92696274  0.91945004     0.14900
C2817       C  0.86382667  0.91438380  0.84577009    -0.14700
C2818       C  0.89410665  0.91307017  0.86239596    -0.29800
H2819       H  0.84122425  0.90079304  0.85478774     0.14400
H2820       H  0.91596517  0.92610964  0.85070444     0.14900
C2821       C  0.92564544  0.86582357  0.88941235    -0.14700
C2822       C  0.91748798  0.83779505  0.87080820    -0.29800
H2823       H  0.95105606  0.86692123  0.90106382     0.14400
H2824       H  0.89176420  0.83484973  0.86034190     0.14900
loop_ 
_geom_bond_atom_site_label_1 
_geom_bond_atom_site_label_2 
_geom_bond_distance 
_geom_bond_site_symmetry_2 
_ccdc_geom_bond_type 
N1            N2   1.322       .  A
N1            N7   1.317       .  A
N1        Mn1795   2.208   1_454  S
N2            C9   1.356       .  A
N3            N5   1.317       .  A
N3            N4   1.320       .  A
N3        Mn1431   2.215       .  S
N4           C10   1.357       .  A
N5            N6   1.325       .  A
N5         Mn383   2.226       .  S
N6           C10   1.360       .  A
N7            N8   1.322       .  A
N7          Mn19   2.225   1_455  S
N8            C9   1.360       .  A
C9          C223   1.547       .  S
C10          C47   1.548       .  S
N11          N17   1.319       .  A
N11          N12   1.320       .  A
N11       Mn1453   2.238   1_554  S
N12          C20   1.360       .  A
N13          N14   1.327       .  A
N13          N15   1.316       .  A
N13        Mn725   2.229   1_455  S
N14          C21   1.359       .  A
N15          N16   1.324       .  A
N15         Mn41   2.225   1_455  S
N16          C21   1.358       .  A
N17          N18   1.328       .  A
N17       Mn2137   2.218       .  S
N18          C20   1.356       .  A
Mn19       N1415   2.217       .  S
Mn19        N719   2.228   1_655  S
Mn19       N2135   2.227       .  S
Mn19       Cl749   2.558   1_554  S
C20         C117   1.538       .  S
C21         C222   1.543       .  S
N22          N23   1.330       .  A
N22          N28   1.317       .  A
N22         Mn30   2.228       .  S
N23          C31   1.360       .  A
N24          N26   1.315       .  A
N24          N25   1.320       .  A
N24       Mn2160   2.210   1_455  S
N25          C32   1.358       .  A
N26          N27   1.322       .  A
N26       Mn1442   2.208   1_455  S
N27          C32   1.357       .  A
N28          N29   1.319       .  A
N28        Mn748   2.228       .  S
N29          C31   1.358       .  A
Mn30       N1766   2.204       .  S
Mn30        N358   2.209       .  S
Mn30       N1438   2.190       .  S
Mn30      Cl2514   2.564       .  S
C31          C46   1.546       .  S
C32         C152   1.543       .  S
N33          N34   1.324       .  A
N33          N39   1.314       .  A
N33        Mn394   2.216   1_455  S
N34          C44   1.360       .  A
N35          N36   1.316       .  A
N35          N37   1.316       .  A
N35         Mn42   2.198       .  S
N36          C45   1.353       .  A
N37          N38   1.330       .  A
N37       Mn1806   2.238       .  S
N38          C45   1.363       .  A
N39          N40   1.317       .  A
N39       Mn1454   2.188   1_445  S
N40          C44   1.353       .  A
Mn41       N1423   2.227       .  S
Mn41        N386   2.226   1_654  S
Mn41       N1802   2.224   1_554  S
Mn41        Cl43   2.566       .  S
Mn42       N2142   2.199   1_545  S
Mn42        N734   2.217   1_545  S
Mn42       N1451   2.194       .  S
Mn42      Cl1808   2.546       .  S
Cl43       Mn725   2.556       .  S
Cl43      Mn2501   2.562   1_545  S
Cl43      Mn1807   2.544   1_554  S
C44         C187   1.538       .  S
C45          C82   1.546       .  S
C46         C342   1.519       .  S
C46         C347   1.525       .  S
C46         C350   1.532       .  S
C47         C331   1.524       .  S
C47         C334   1.527       .  S
C47         C338   1.528       .  S
N48          C53   1.347       .  A
N48         C405   1.350   1_554  A
N48          H80   1.042       .  S
N49          C56   1.350       .  A
N49          C57   1.348       .  A
N50          C55   1.352       .  A
N50         C407   1.352   1_554  A
N50          H81   1.040       .  S
N51          C58   1.352       .  A
N51          C59   1.352       .  A
C52         N401   1.350       .  A
C52          C60   1.389       .  A
C52          C68   1.408       .  A
C53          C69   1.406       .  A
C53          C61   1.384       .  A
C54         N403   1.353       .  A
C54          C62   1.388       .  A
C54          C71   1.415       .  A
C55          C70   1.413       .  A
C55          C63   1.386       .  A
C56          C68   1.410       .  A
C56          C64   1.385       .  A
C57          C71   1.410       .  A
C57          C65   1.386       .  A
C58          C66   1.386       .  A
C58          C69   1.414       .  A
C59          C67   1.387       .  A
C59          C70   1.416       .  A
C60         C414   1.368       .  A
C60          H72   1.078       .  S
C61         C413   1.367   1_554  A
C61          H73   1.083       .  S
C62         C416   1.374       .  A
C62          H74   1.083       .  S
C63         C415   1.375   1_554  A
C63          H75   1.083       .  S
C64          C65   1.380       .  A
C64          H76   1.081       .  S
C65          H77   1.083       .  S
C66          C67   1.383       .  A
C66          H78   1.082       .  S
C67          H79   1.082       .  S
C68         C343   1.484       .  S
C69         C339   1.494       .  S
C70         C323   1.498       .  S
C71         C326   1.487       .  S
C82         C310   1.530       .  S
C82         C315   1.514       .  S
C82         C318   1.545       .  S
N83          C87   1.352       .  A
N83         C794   1.352       .  A
N83         H115   1.040       .  S
N84          C91   1.346       .  A
N84          C92   1.346       .  A
N85          C89   1.348       .  A
N85         C796   1.350       .  A
N85         H116   1.041       .  S
N86          C93   1.353       .  A
N86          C94   1.357       .  A
C87          C95   1.384       .  A
C87         C103   1.411       .  A
C88         N789   1.356   1_545  A
C88         C104   1.425       .  A
C88          C96   1.390       .  A
C89          C97   1.383       .  A
C89         C106   1.408       .  A
C90         N791   1.354   1_545  A
C90         C105   1.414       .  A
C90          C98   1.390       .  A
C91         C103   1.402       .  A
C91          C99   1.387       .  A
C92         C106   1.400       .  A
C92         C100   1.385       .  A
C93         C101   1.388       .  A
C93         C104   1.422       .  A
C94         C102   1.385       .  A
C94         C105   1.421       .  A
C95         C802   1.376       .  A
C95         H107   1.081       .  S
C96         C801   1.378   1_545  A
C96         H108   1.083       .  S
C97         C804   1.370       .  A
C97         H109   1.083       .  S
C98         C803   1.370   1_545  A
C98         H110   1.077       .  S
C99         C100   1.375       .  A
C99         H111   1.082       .  S
C100        H112   1.082       .  S
C101        C102   1.383       .  A
C101        H113   1.082       .  S
C102        H114   1.082       .  S
C103        C346   1.483       .  S
C104        C319   1.508       .  S
C105        C306   1.504       .  S
C106        C330   1.483       .  S
C117        C299   1.524       .  S
C117        C302   1.533       .  S
C117        C307   1.538       .  S
N118        C123   1.353   1_556  A
N118        C475   1.353       .  A
N118        H150   1.041       .  S
N119        C126   1.348       .  A
N119        C127   1.349       .  A
N120        C125   1.351   1_556  A
N120        C477   1.351       .  A
N120        H151   1.041       .  S
N121        C128   1.353       .  A
N121        C129   1.353       .  A
C122        N471   1.352       .  A
C122        C130   1.385       .  A
C122        C138   1.413       .  A
C123        C139   1.414       .  A
C123        C131   1.386       .  A
C124        N473   1.353       .  A
C124        C132   1.387       .  A
C124        C141   1.416       .  A
C125        C140   1.412       .  A
C125        C133   1.387       .  A
C126        C138   1.404       .  A
C126        C134   1.386       .  A
C127        C141   1.405       .  A
C127        C135   1.386       .  A
C128        C136   1.386       .  A
C128        C139   1.415       .  A
C129        C137   1.386       .  A
C129        C140   1.415       .  A
C130        C484   1.374       .  A
C130        H142   1.078       .  S
C131        C483   1.376   1_554  A
C131        H143   1.083       .  S
C132        C486   1.376       .  A
C132        H144   1.083       .  S
C133        C485   1.376   1_554  A
C133        H145   1.082       .  S
C134        C135   1.374       .  A
C134        H146   1.083       .  S
C135        H147   1.082       .  S
C136        C137   1.378       .  A
C136        H148   1.082       .  S
C137        H149   1.082       .  S
C138        C314   1.485       .  S
C139        C303   1.499       .  S
C140        C290   1.495       .  S
C141        C295   1.490       .  S
C152        C282   1.532       .  S
C152        C287   1.523       .  S
C152        C327   1.523       .  S
N153        C157   1.352       .  A
N153       C1570   1.350       .  A
N153        H185   1.041       .  S
N154        C161   1.353       .  A
N154        C162   1.354       .  A
N155        C159   1.351       .  A
N155       C1572   1.349       .  A
N155        H186   1.040       .  S
N156        C163   1.347       .  A
N156        C164   1.348       .  A
C157        C165   1.389       .  A
C157        C173   1.414       .  A
C158       N1565   1.350       .  A
C158        C174   1.414       .  A
C158        C166   1.384       .  A
C159        C167   1.388       .  A
C159        C176   1.410       .  A
C160       N1567   1.350       .  A
C160        C175   1.409       .  A
C160        C168   1.381       .  A
C161        C173   1.420       .  A
C161        C169   1.388       .  A
C162        C176   1.418       .  A
C162        C170   1.386       .  A
C163        C171   1.386       .  A
C163        C174   1.406       .  A
C164        C172   1.386       .  A
C164        C175   1.408       .  A
C165       C1578   1.374       .  A
C165        H177   1.077       .  S
C166       C1577   1.370   1_455  A
C166        H178   1.083       .  S
C167       C1580   1.360       .  A
C167        H179   1.076       .  S
C168       C1579   1.369   1_455  A
C168        H180   1.083       .  S
C169        C170   1.384       .  A
C169        H181   1.082       .  S
C170        H182   1.082       .  S
C171        C172   1.382       .  A
C171        H183   1.082       .  S
C172        H184   1.082       .  S
C173        C351   1.493       .  S
C174        C286   1.492       .  S
C175        C279   1.496       .  S
C176        C311   1.492       .  S
C187        C274   1.539       .  S
C187        C278   1.528       .  S
C187        C294   1.519       .  S
N188        C193   1.350       .  A
N188        C898   1.354       .  A
N188        H220   1.040       .  S
N189        C196   1.350       .  A
N189        C197   1.351       .  A
N190        C195   1.352       .  A
N190        C900   1.355       .  A
N190        H221   1.038       .  S
N191        C198   1.349       .  A
N191        C199   1.348       .  A
C192        N894   1.351   1_545  A
C192        C200   1.391       .  A
C192        C208   1.413       .  A
C193        C209   1.411       .  A
C193        C201   1.381       .  A
C194        N896   1.354   1_545  A
C194        C202   1.388       .  A
C194        C211   1.419       .  A
C195        C210   1.413       .  A
C195        C203   1.383       .  A
C196        C208   1.414       .  A
C196        C204   1.388       .  A
C197        C211   1.413       .  A
C197        C205   1.386       .  A
C198        C206   1.386       .  A
C198        C209   1.408       .  A
C199        C207   1.386       .  A
C199        C210   1.407       .  A
C200        C907   1.372   1_545  A
C200        H212   1.076       .  S
C201        C906   1.370       .  A
C201        H213   1.083       .  S
C202        C909   1.377   1_545  A
C202        H214   1.083       .  S
C203        C908   1.369       .  A
C203        H215   1.083       .  S
C204        C205   1.382       .  A
C204        H216   1.082       .  S
C205        H217   1.082       .  S
C206        C207   1.382       .  A
C206        H218   1.082       .  S
C207        H219   1.083       .  S
C208        C271   1.488       .  S
C209        C266   1.498       .  S
C210        C283   1.491       .  S
C211        C275   1.505       .  S
C222        C263   1.524       .  S
C222        C270   1.527       .  S
C222        C291   1.526       .  S
C223        C258   1.527       .  S
C223        C267   1.532       .  S
C223        C322   1.534       .  S
N224        C228   1.350       .  A
N224       C1641   1.350       .  A
N224        H256   1.041       .  S
N225        C232   1.350       .  A
N225        C233   1.348       .  A
N226        C230   1.354       .  A
N226       C1643   1.355       .  A
N226        H257   1.040       .  S
N227        C234   1.349       .  A
N227        C235   1.349       .  A
C228        C236   1.386       .  A
C228        C244   1.410       .  A
C229       N1636   1.354   1_455  A
C229        C245   1.420       .  A
C229        C237   1.389       .  A
C230        C238   1.386       .  A
C230        C247   1.418       .  A
C231       N1638   1.351   1_455  A
C231        C246   1.412       .  A
C231        C239   1.388       .  A
C232        C244   1.407       .  A
C232        C240   1.385       .  A
C233        C247   1.408       .  A
C233        C241   1.387       .  A
C234        C242   1.386       .  A
C234        C245   1.409       .  A
C235        C243   1.386       .  A
C235        C246   1.408       .  A
C236       C1649   1.374       .  A
C236        H248   1.083       .  S
C237       C1648   1.377   1_455  A
C237        H249   1.083       .  S
C238       C1651   1.377       .  A
C238        H250   1.081       .  S
C239       C1650   1.374   1_455  A
C239        H251   1.079       .  S
C240        C241   1.377       .  A
C240        H252   1.082       .  S
C241        H253   1.082       .  S
C242        C243   1.379       .  A
C242        H254   1.083       .  S
C243        H255   1.083       .  S
C244        C335   1.490       .  S
C245        C259   1.493       .  S
C246        C262   1.484       .  S
C247        C298   1.492       .  S
C258        C259   1.346       .  D
C258        H260   1.089       .  S
C259        H261   1.081       .  S
C262        C263   1.339       .  D
C262        H264   1.085       .  S
C263        H265   1.088       .  S
C266        C267   1.354       .  D
C266        H268   1.080       .  S
C267        H269   1.083       .  S
C270        C271   1.346       .  D
C270        H272   1.085       .  S
C271        H273   1.086       .  S
C274        C275   1.352       .  D
C274        H276   1.084       .  S
C275        H277   1.081       .  S
C278        C279   1.354       .  D
C278        H280   1.088       .  S
C279        H281   1.079       .  S
C282        C283   1.351       .  D
C282        H284   1.085       .  S
C283        H285   1.079       .  S
C286        C287   1.350       .  D
C286        H288   1.080       .  S
C287        H289   1.089       .  S
C290        C291   1.353       .  D
C290        H292   1.086       .  S
C291        H293   1.087       .  S
C294        C295   1.344       .  D
C294        H296   1.089       .  S
C295        H297   1.083       .  S
C298        C299   1.344       .  D
C298        H300   1.084       .  S
C299        H301   1.089       .  S
C302        C303   1.353       .  D
C302        H304   1.088       .  S
C303        H305   1.084       .  S
C306        C307   1.349       .  D
C306        H308   1.085       .  S
C307        H309   1.086       .  S
C310        C311   1.349       .  D
C310        H312   1.086       .  S
C311        H313   1.083       .  S
C314        C315   1.344       .  D
C314        H316   1.086       .  S
C315        H317   1.089       .  S
C318        C319   1.353       .  D
C318        H320   1.083       .  S
C319        H321   1.085       .  S
C322        C323   1.355       .  D
C322        H324   1.089       .  S
C323        H325   1.079       .  S
C326        C327   1.347       .  D
C326        H328   1.080       .  S
C327        H329   1.090       .  S
C330        C331   1.348       .  D
C330        H332   1.077       .  S
C331        H333   1.084       .  S
C334        C335   1.349       .  D
C334        H336   1.089       .  S
C335        H337   1.078       .  S
C338        C339   1.360       .  D
C338        H340   1.088       .  S
C339        H341   1.076       .  S
C342        C343   1.339       .  D
C342        H344   1.088       .  S
C343        H345   1.086       .  S
C346        C347   1.344       .  D
C346        H348   1.086       .  S
C347        H349   1.085       .  S
C350        C351   1.350       .  D
C350        H352   1.085       .  S
C351        H353   1.086       .  S
N354        N355   1.322       .  A
N354        N360   1.316       .  A
N354      Mn1442   2.208   1_455  S
N355        C362   1.357       .  A
N356        N358   1.318       .  A
N356        N357   1.321       .  A
N356      Mn1784   2.221       .  S
N357        C363   1.357       .  A
N358        N359   1.322       .  A
N359        C363   1.356       .  A
N360        N361   1.319       .  A
N360       Mn372   2.203   1_455  S
N361        C362   1.356       .  A
C362        C576   1.539       .  S
C363        C400   1.541       .  S
N364        N370   1.320       .  A
N364        N365   1.322       .  A
N364      Mn1806   2.245       .  S
N365        C373   1.361       .  A
N366        N367   1.329       .  A
N366        N368   1.316       .  A
N366      Mn1078   2.231   1_445  S
N367        C374   1.360       .  A
N368        N369   1.318       .  A
N368       Mn394   2.207   1_455  S
N369        C374   1.354       .  A
N370        N371   1.327       .  A
N370      Mn2490   2.223       .  S
N371        C373   1.357       .  A
Mn372      N1768   2.202       .  S
Mn372      N1072   2.215   1_655  S
Mn372      N2488   2.224       .  S
Mn372     Cl1102   2.562       .  S
C373        C470   1.541       .  S
C374        C575   1.537       .  S
N375        N376   1.329       .  A
N375        N381   1.316       .  A
N375       Mn383   2.235   1_556  S
N376        C384   1.362       .  A
N377        N379   1.315       .  A
N377        N378   1.322       .  A
N377      Mn2513   2.220   1_455  S
N378        C385   1.359       .  A
N379        N380   1.323       .  A
N379      Mn1795   2.209   1_455  S
N380        C385   1.358       .  A
N381        N382   1.319       .  A
N381      Mn1101   2.216       .  S
N382        C384   1.356       .  A
Mn383      N1413   2.238       .  S
Mn383      N1791   2.246   1_554  S
Mn383     Cl2161   2.590       .  S
C384        C399   1.547       .  S
C385        C505   1.546       .  S
N386        N387   1.324       .  A
N386        N392   1.317       .  A
N387        C397   1.362       .  A
N388        N389   1.319       .  A
N388        N390   1.318       .  A
N388       Mn395   2.214   1_545  S
N389        C398   1.356       .  A
N390        N391   1.330       .  A
N390      Mn1453   2.243       .  S
N391        C398   1.362       .  A
N392        N393   1.316       .  A
N392      Mn1807   2.191   1_455  S
N393        C397   1.351       .  A
Mn394      N1776   2.228       .  S
Mn394      N1449   2.227       .  S
Mn394      Cl396   2.560   1_545  S
Mn395      N2495   2.209       .  S
Mn395      N1087   2.250       .  S
Mn395      N1804   2.239   1_565  S
Mn395     Cl1455   2.554   1_565  S
Cl396     Mn1078   2.554       .  S
Cl396     Mn2148   2.573       .  S
Cl396     Mn1454   2.538       .  S
C397        C540   1.539       .  S
C398        C435   1.549       .  S
C399        C695   1.522       .  S
C399        C700   1.529       .  S
C399        C703   1.531       .  S
C400        C684   1.518       .  S
C400        C687   1.522       .  S
C400        C691   1.525       .  S
N401        C406   1.347       .  A
N401        H433   1.040       .  S
N402        C409   1.353       .  A
N402        C410   1.351       .  A
N403        C408   1.351       .  A
N403        H434   1.040       .  S
N404        C411   1.351       .  A
N404        C412   1.350       .  A
C405        C413   1.391       .  A
C405        C421   1.410       .  A
C406        C422   1.407       .  A
C406        C414   1.385       .  A
C407        C415   1.389       .  A
C407        C424   1.415       .  A
C408        C423   1.411       .  A
C408        C416   1.386       .  A
C409        C421   1.414       .  A
C409        C417   1.385       .  A
C410        C424   1.415       .  A
C410        C418   1.387       .  A
C411        C419   1.386       .  A
C411        C422   1.411       .  A
C412        C420   1.387       .  A
C412        C423   1.414       .  A
C413        H425   1.076       .  S
C414        H426   1.083       .  S
C415        H427   1.083       .  S
C416        H428   1.083       .  S
C417        C418   1.382       .  A
C417        H429   1.081       .  S
C418        H430   1.082       .  S
C419        C420   1.383       .  A
C419        H431   1.083       .  S
C420        H432   1.082       .  S
C421        C696   1.491       .  S
C422        C692   1.488       .  S
C423        C676   1.494       .  S
C424        C679   1.494       .  S
C435        C663   1.535       .  S
C435        C668   1.519       .  S
C435        C671   1.542       .  S
N436       C1147   1.352       .  A
N436        C440   1.354       .  A
N436        H468   1.039       .  S
N437        C444   1.348       .  A
N437        C445   1.344       .  A
N438       C1149   1.355       .  A
N438        C442   1.348       .  A
N438        H469   1.039       .  S
N439        C446   1.352       .  A
N439        C447   1.355       .  A
C440        C448   1.383       .  A
C440        C456   1.413       .  A
C441       N1142   1.354   1_545  A
C441        C457   1.420       .  A
C441        C449   1.389       .  A
C442        C450   1.385       .  A
C442        C459   1.412       .  A
C443       N1144   1.353   1_545  A
C443        C458   1.413       .  A
C443        C451   1.390       .  A
C444        C456   1.402       .  A
C444        C452   1.386       .  A
C445        C459   1.401       .  A
C445        C453   1.387       .  A
C446        C454   1.388       .  A
C446        C457   1.420       .  A
C447        C455   1.385       .  A
C447        C458   1.417       .  A
C448       C1155   1.377       .  A
C448        H460   1.081       .  S
C449       C1154   1.376   1_545  A
C449        H461   1.083       .  S
C450       C1157   1.369       .  A
C450        H462   1.083       .  S
C451       C1156   1.370   1_545  A
C451        H463   1.077       .  S
C452        C453   1.376       .  A
C452        H464   1.082       .  S
C453        H465   1.083       .  S
C454        C455   1.382       .  A
C454        H466   1.082       .  S
C455        H467   1.082       .  S
C456        C699   1.491       .  S
C457        C672   1.500       .  S
C458        C659   1.499       .  S
C459        C683   1.474       .  S
C470        C652   1.521       .  S
C470        C655   1.531       .  S
C470        C660   1.534       .  S
N471        C476   1.351       .  A
N471        H503   1.041       .  S
N472        C479   1.349       .  A
N472        C480   1.350       .  A
N473        C478   1.353       .  A
N473        H504   1.040       .  S
N474        C481   1.355       .  A
N474        C482   1.354       .  A
C475        C483   1.386       .  A
C475        C491   1.415       .  A
C476        C492   1.411       .  A
C476        C484   1.386       .  A
C477        C485   1.388       .  A
C477        C494   1.414       .  A
C478        C493   1.415       .  A
C478        C486   1.387       .  A
C479        C491   1.408       .  A
C479        C487   1.387       .  A
C480        C494   1.407       .  A
C480        C488   1.386       .  A
C481        C489   1.386       .  A
C481        C492   1.418       .  A
C482        C490   1.387       .  A
C482        C493   1.419       .  A
C483        H495   1.081       .  S
C484        H496   1.083       .  S
C485        H497   1.083       .  S
C486        H498   1.083       .  S
C487        C488   1.376       .  A
C487        H499   1.082       .  S
C488        H500   1.082       .  S
C489        C490   1.380       .  A
C489        H501   1.082       .  S
C490        H502   1.082       .  S
C491        C667   1.491       .  S
C492        C656   1.499       .  S
C493        C643   1.502       .  S
C494        C648   1.490       .  S
C505        C635   1.533       .  S
C505        C640   1.532       .  S
C505        C680   1.526       .  S
N506       C1923   1.351       .  A
N506        C510   1.350       .  A
N506        H538   1.041       .  S
N507        C514   1.352       .  A
N507        C515   1.356       .  A
N508       C1925   1.349       .  A
N508        C512   1.353       .  A
N508        H539   1.041       .  S
N509        C516   1.350       .  A
N509        C517   1.349       .  A
C510        C518   1.389       .  A
C510        C526   1.414       .  A
C511       N1918   1.351       .  A
C511        C527   1.414       .  A
C511        C519   1.384       .  A
C512        C520   1.391       .  A
C512        C529   1.414       .  A
C513       N1920   1.351       .  A
C513        C528   1.414       .  A
C513        C521   1.383       .  A
C514        C526   1.420       .  A
C514        C522   1.388       .  A
C515        C529   1.420       .  A
C515        C523   1.386       .  A
C516        C524   1.386       .  A
C516        C527   1.412       .  A
C517        C525   1.386       .  A
C517        C528   1.411       .  A
C518       C1931   1.376       .  A
C518        H530   1.083       .  S
C519       C1930   1.373   1_455  A
C519        H531   1.083       .  S
C520       C1933   1.368       .  A
C520        H532   1.077       .  S
C521       C1932   1.371   1_455  A
C521        H533   1.083       .  S
C522        C523   1.385       .  A
C522        H534   1.082       .  S
C523        H535   1.082       .  S
C524        C525   1.383       .  A
C524        H536   1.082       .  S
C525        H537   1.082       .  S
C526        C704   1.495       .  S
C527        C639   1.503       .  S
C528        C632   1.500       .  S
C529        C664   1.500       .  S
C540        C627   1.543       .  S
C540        C631   1.530       .  S
C540        C647   1.518       .  S
N541        C546   1.348       .  A
N541       C1251   1.352       .  A
N541        H573   1.041       .  S
N542        C549   1.354       .  A
N542        C550   1.353       .  A
N543        C548   1.351       .  A
N543       C1253   1.351       .  A
N543        H574   1.041       .  S
N544        C551   1.348       .  A
N544        C552   1.348       .  A
C545       N1247   1.354   1_545  A
C545        C553   1.390       .  A
C545        C561   1.416       .  A
C546        C562   1.411       .  A
C546        C554   1.385       .  A
C547       N1249   1.355   1_545  A
C547        C555   1.389       .  A
C547        C564   1.422       .  A
C548        C563   1.412       .  A
C548        C556   1.386       .  A
C549        C561   1.417       .  A
C549        C557   1.386       .  A
C550        C564   1.418       .  A
C550        C558   1.387       .  A
C551        C559   1.386       .  A
C551        C562   1.406       .  A
C552        C560   1.387       .  A
C552        C563   1.408       .  A
C553       C1260   1.370   1_545  A
C553        H565   1.077       .  S
C554       C1259   1.372       .  A
C554        H566   1.083       .  S
C555       C1262   1.378   1_545  A
C555        H567   1.083       .  S
C556       C1261   1.377       .  A
C556        H568   1.082       .  S
C557        C558   1.383       .  A
C557        H569   1.082       .  S
C558        H570   1.082       .  S
C559        C560   1.381       .  A
C559        H571   1.082       .  S
C560        H572   1.082       .  S
C561        C624   1.496       .  S
C562        C619   1.489       .  S
C563        C636   1.491       .  S
C564        C628   1.507       .  S
C575        C616   1.527       .  S
C575        C623   1.530       .  S
C575        C644   1.535       .  S
C576        C611   1.522       .  S
C576        C620   1.529       .  S
C576        C675   1.529       .  S
N577       C1994   1.353       .  A
N577        C581   1.352       .  A
N577        H609   1.039       .  S
N578        C585   1.348       .  A
N578        C586   1.349       .  A
N579       C1996   1.353       .  A
N579        C583   1.353       .  A
N579        H610   1.038       .  S
N580        C587   1.347       .  A
N580        C588   1.349       .  A
C581        C589   1.387       .  A
C581        C597   1.414       .  A
C582       N1989   1.351   1_455  A
C582        C598   1.416       .  A
C582        C590   1.388       .  A
C583        C591   1.385       .  A
C583        C600   1.417       .  A
C584       N1991   1.355   1_455  A
C584        C599   1.415       .  A
C584        C592   1.385       .  A
C585        C597   1.405       .  A
C585        C593   1.386       .  A
C586        C600   1.407       .  A
C586        C594   1.387       .  A
C587        C595   1.387       .  A
C587        C598   1.405       .  A
C588        C596   1.386       .  A
C588        C599   1.405       .  A
C589       C2002   1.373       .  A
C589        H601   1.083       .  S
C590       C2001   1.375   1_455  A
C590        H602   1.083       .  S
C591       C2004   1.375       .  A
C591        H603   1.080       .  S
C592       C2003   1.376   1_455  A
C592        H604   1.081       .  S
C593        C594   1.376       .  A
C593        H605   1.083       .  S
C594        H606   1.082       .  S
C595        C596   1.375       .  A
C595        H607   1.082       .  S
C596        H608   1.082       .  S
C597        C688   1.483       .  S
C598        C612   1.486       .  S
C599        C615   1.493       .  S
C600        C651   1.490       .  S
C611        C612   1.343       .  D
C611        H613   1.090       .  S
C612        H614   1.079       .  S
C615        C616   1.344       .  D
C615        H617   1.083       .  S
C616        H618   1.089       .  S
C619        C620   1.352       .  D
C619        H621   1.078       .  S
C620        H622   1.084       .  S
C623        C624   1.345       .  D
C623        H625   1.086       .  S
C624        H626   1.085       .  S
C627        C628   1.353       .  D
C627        H629   1.084       .  S
C628        H630   1.082       .  S
C631        C632   1.353       .  D
C631        H633   1.088       .  S
C632        H634   1.080       .  S
C635        C636   1.351       .  D
C635        H637   1.085       .  S
C636        H638   1.080       .  S
C639        C640   1.354       .  D
C639        H641   1.081       .  S
C640        H642   1.088       .  S
C643        C644   1.355       .  D
C643        H645   1.083       .  S
C644        H646   1.088       .  S
C647        C648   1.345       .  D
C647        H649   1.089       .  S
C648        H650   1.082       .  S
C651        C652   1.344       .  D
C651        H653   1.084       .  S
C652        H654   1.090       .  S
C655        C656   1.357       .  D
C655        H657   1.088       .  S
C656        H658   1.084       .  S
C659        C660   1.346       .  D
C659        H661   1.085       .  S
C660        H662   1.086       .  S
C663        C664   1.348       .  D
C663        H665   1.085       .  S
C664        H666   1.084       .  S
C667        C668   1.346       .  D
C667        H669   1.085       .  S
C668        H670   1.088       .  S
C671        C672   1.355       .  D
C671        H673   1.084       .  S
C672        H674   1.085       .  S
C675        C676   1.354       .  D
C675        H677   1.089       .  S
C676        H678   1.078       .  S
C679        C680   1.353       .  D
C679        H681   1.081       .  S
C680        H682   1.089       .  S
C683        C684   1.345       .  D
C683        H685   1.077       .  S
C684        H686   1.086       .  S
C687        C688   1.345       .  D
C687        H689   1.089       .  S
C688        H690   1.080       .  S
C691        C692   1.356       .  D
C691        H693   1.089       .  S
C692        H694   1.079       .  S
C695        C696   1.341       .  D
C695        H697   1.085       .  S
C696        H698   1.086       .  S
C699        C700   1.345       .  D
C699        H701   1.084       .  S
C700        H702   1.085       .  S
C703        C704   1.356       .  D
C703        H705   1.089       .  S
C704        H706   1.084       .  S
N707        N708   1.321       .  A
N707        N713   1.317       .  A
N707      Mn2501   2.202   1_455  S
N708        C715   1.355       .  A
N709        N711   1.318       .  A
N709        N710   1.319       .  A
N709      Mn2137   2.209   1_565  S
N710        C716   1.355       .  A
N711        N712   1.324       .  A
N711      Mn1089   2.219   1_554  S
N712        C716   1.359       .  A
N713        N714   1.321       .  A
N713       Mn725   2.224   1_465  S
N714        C715   1.360       .  A
C715        C929   1.542       .  S
C716        C753   1.544       .  S
N717        N723   1.319       .  A
N717        N718   1.319       .  A
N717      Mn2159   2.225       .  S
N718        C726   1.357       .  A
N719        N720   1.327       .  A
N719        N721   1.320       .  A
N720        C727   1.357       .  A
N721        N722   1.326       .  A
N721       Mn747   2.257   1_454  S
N722        C727   1.362       .  A
N723        N724   1.330       .  A
N723      Mn1431   2.239       .  S
N724        C726   1.360       .  A
Mn725      N2121   2.214   1_545  S
Mn725      N1429   2.241       .  S
C726        C823   1.539       .  S
C727        C928   1.548       .  S
N728        N729   1.321       .  A
N728        N734   1.315       .  A
N728       Mn736   2.193       .  S
N729        C737   1.355       .  A
N730        N732   1.314       .  A
N730        N731   1.317       .  A
N730      Mn1454   2.193   1_455  S
N731        C738   1.354       .  A
N732        N733   1.324       .  A
N732      Mn2148   2.215   1_455  S
N733        C738   1.361       .  A
N734        N735   1.320       .  A
N735        C737   1.359       .  A
Mn736      N2472   2.198       .  S
Mn736      N1064   2.198       .  S
Mn736      N2144   2.201       .  S
Mn736     Cl1808   2.559   1_565  S
C737        C752   1.540       .  S
C738        C858   1.540       .  S
N739        N740   1.320       .  A
N739        N745   1.319       .  A
N739      Mn1100   2.228   1_455  S
N740        C750   1.357       .  A
N741        N742   1.320       .  A
N741        N743   1.318       .  A
N741       Mn748   2.212       .  S
N742        C751   1.356       .  A
N743        N744   1.329       .  A
N743      Mn2512   2.245       .  S
N744        C751   1.363       .  A
N745        N746   1.329       .  A
N745      Mn2160   2.227   1_455  S
N746        C750   1.358       .  A
Mn747      N2129   2.240   1_556  S
Mn747      N1092   2.253   1_655  S
Mn747      N2508   2.249       .  S
Mn747      Cl749   2.579       .  S
Mn748      N1436   2.202       .  S
Mn748      N2157   2.225       .  S
Mn748     Cl2514   2.552       .  S
Cl749     Mn1795   2.577       .  S
Cl749     Mn2513   2.544       .  S
C750        C893   1.539       .  S
C751        C788   1.549       .  S
C752       C1048   1.531       .  S
C752       C1053   1.535       .  S
C752       C1056   1.541       .  S
C753       C1037   1.527       .  S
C753       C1040   1.526       .  S
C753       C1044   1.527       .  S
N754        C759   1.349       .  A
N754       C1111   1.351   1_554  A
N754        H786   1.041       .  S
N755        C762   1.352       .  A
N755        C763   1.350       .  A
N756        C761   1.351       .  A
N756       C1113   1.353   1_554  A
N756        H787   1.042       .  S
N757        C764   1.352       .  A
N757        C765   1.351       .  A
C758       N1107   1.352       .  A
C758        C766   1.386       .  A
C758        C774   1.411       .  A
C759        C775   1.409       .  A
C759        C767   1.384       .  A
C760       N1109   1.351       .  A
C760        C768   1.387       .  A
C760        C777   1.413       .  A
C761        C776   1.411       .  A
C761        C769   1.386       .  A
C762        C774   1.412       .  A
C762        C770   1.386       .  A
C763        C777   1.412       .  A
C763        C771   1.387       .  A
C764        C772   1.386       .  A
C764        C775   1.413       .  A
C765        C773   1.387       .  A
C765        C776   1.415       .  A
C766       C1120   1.375       .  A
C766        H778   1.083       .  S
C767       C1119   1.370   1_554  A
C767        H779   1.083       .  S
C768       C1122   1.374       .  A
C768        H780   1.083       .  S
C769       C1121   1.375   1_554  A
C769        H781   1.083       .  S
C770        C771   1.379       .  A
C770        H782   1.082       .  S
C771        H783   1.082       .  S
C772        C773   1.383       .  A
C772        H784   1.082       .  S
C773        H785   1.082       .  S
C774       C1049   1.496       .  S
C775       C1045   1.495       .  S
C776       C1029   1.496       .  S
C777       C1032   1.489       .  S
C788       C1016   1.533       .  S
C788       C1021   1.523       .  S
C788       C1024   1.540       .  S
N789        C793   1.356       .  A
N789        H821   1.041       .  S
N790        C797   1.349       .  A
N790        C798   1.349       .  A
N791        C795   1.349       .  A
N791        H822   1.041       .  S
N792        C799   1.352       .  A
N792        C800   1.354       .  A
C793        C801   1.385       .  A
C793        C809   1.421       .  A
C794        C810   1.416       .  A
C794        C802   1.388       .  A
C795        C803   1.384       .  A
C795        C812   1.412       .  A
C796        C811   1.415       .  A
C796        C804   1.392       .  A
C797        C809   1.408       .  A
C797        C805   1.387       .  A
C798        C812   1.406       .  A
C798        C806   1.385       .  A
C799        C807   1.388       .  A
C799        C810   1.419       .  A
C800        C808   1.386       .  A
C800        C811   1.417       .  A
C801        H813   1.083       .  S
C802        H814   1.083       .  S
C803        H815   1.083       .  S
C804        H816   1.077       .  S
C805        C806   1.376       .  A
C805        H817   1.082       .  S
C806        H818   1.082       .  S
C807        C808   1.383       .  A
C807        H819   1.082       .  S
C808        H820   1.083       .  S
C809       C1052   1.501       .  S
C810       C1025   1.498       .  S
C811       C1012   1.494       .  S
C812       C1036   1.489       .  S
C823       C1005   1.517       .  S
C823       C1008   1.520       .  S
C823       C1013   1.527       .  S
N824        C829   1.348   1_556  A
N824       C1181   1.351       .  A
N824        H856   1.041       .  S
N825        C832   1.352       .  A
N825        C833   1.351       .  A
N826        C831   1.353   1_556  A
N826       C1183   1.350       .  A
N826        H857   1.041       .  S
N827        C834   1.349       .  A
N827        C835   1.351       .  A
C828       N1177   1.354       .  A
C828        C836   1.386       .  A
C828        C844   1.415       .  A
C829        C845   1.408       .  A
C829        C837   1.386       .  A
C830       N1179   1.351       .  A
C830        C838   1.387       .  A
C830        C847   1.413       .  A
C831        C846   1.412       .  A
C831        C839   1.385       .  A
C832        C844   1.411       .  A
C832        C840   1.386       .  A
C833        C847   1.412       .  A
C833        C841   1.387       .  A
C834        C842   1.387       .  A
C834        C845   1.410       .  A
C835        C843   1.386       .  A
C835        C846   1.410       .  A
C836       C1190   1.375       .  A
C836        H848   1.081       .  S
C837       C1189   1.374   1_554  A
C837        H849   1.083       .  S
C838       C1192   1.375       .  A
C838        H850   1.083       .  S
C839       C1191   1.375   1_554  A
C839        H851   1.083       .  S
C840        C841   1.378       .  A
C840        H852   1.082       .  S
C841        H853   1.082       .  S
C842        C843   1.378       .  A
C842        H854   1.082       .  S
C843        H855   1.082       .  S
C844       C1020   1.497       .  S
C845       C1009   1.484       .  S
C846        C996   1.495       .  S
C847       C1001   1.490       .  S
C858        C988   1.535       .  S
C858        C993   1.527       .  S
C858       C1033   1.521       .  S
N859       C2276   1.356       .  A
N859        C863   1.357       .  A
N859        H891   1.042       .  S
N860        C867   1.352       .  A
N860        C868   1.354       .  A
N861       C2278   1.349       .  A
N861        C865   1.352       .  A
N861        H892   1.042       .  S
N862        C869   1.348       .  A
N862        C870   1.349       .  A
C863        C871   1.388       .  A
C863        C879   1.424       .  A
C864       N2271   1.351       .  A
C864        C880   1.413       .  A
C864        C872   1.383       .  A
C865        C873   1.390       .  A
C865        C882   1.412       .  A
C866       N2273   1.351       .  A
C866        C881   1.411       .  A
C866        C874   1.381       .  A
C867        C879   1.419       .  A
C867        C875   1.388       .  A
C868        C882   1.416       .  A
C868        C876   1.385       .  A
C869        C877   1.386       .  A
C869        C880   1.407       .  A
C870        C878   1.385       .  A
C870        C881   1.406       .  A
C871       C2284   1.377       .  A
C871        H883   1.082       .  S
C872       C2283   1.372   1_455  A
C872        H884   1.083       .  S
C873       C2286   1.371       .  A
C873        H885   1.077       .  S
C874       C2285   1.370   1_455  A
C874        H886   1.082       .  S
C875        C876   1.383       .  A
C875        H887   1.082       .  S
C876        H888   1.082       .  S
C877        C878   1.378       .  A
C877        H889   1.082       .  S
C878        H890   1.082       .  S
C879       C1057   1.512       .  S
C880        C992   1.494       .  S
C881        C985   1.494       .  S
C882       C1017   1.496       .  S
C893        C980   1.531       .  S
C893        C984   1.522       .  S
C893       C1000   1.526       .  S
N894        C899   1.349       .  A
N894        H926   1.042       .  S
N895        C902   1.355       .  A
N895        C903   1.355       .  A
N896        C901   1.352       .  A
N896        H927   1.041       .  S
N897        C904   1.348       .  A
N897        C905   1.346       .  A
C898        C906   1.393       .  A
C898        C914   1.419       .  A
C899        C915   1.410       .  A
C899        C907   1.384       .  A
C900        C908   1.393       .  A
C900        C917   1.421       .  A
C901        C916   1.413       .  A
C901        C909   1.385       .  A
C902        C914   1.423       .  A
C902        C910   1.388       .  A
C903        C917   1.420       .  A
C903        C911   1.386       .  A
C904        C912   1.385       .  A
C904        C915   1.405       .  A
C905        C913   1.388       .  A
C905        C916   1.407       .  A
C906        H918   1.075       .  S
C907        H919   1.083       .  S
C908        H920   1.076       .  S
C909        H921   1.083       .  S
C910        C911   1.383       .  A
C910        H922   1.082       .  S
C911        H923   1.082       .  S
C912        C913   1.381       .  A
C912        H924   1.082       .  S
C913        H925   1.082       .  S
C914        C977   1.500       .  S
C915        C972   1.494       .  S
C916        C989   1.488       .  S
C917        C981   1.500       .  S
C928        C969   1.526       .  S
C928        C976   1.535       .  S
C928        C997   1.525       .  S
C929        C964   1.524       .  S
C929        C973   1.527       .  S
C929       C1028   1.531       .  S
N930       C2347   1.354       .  A
N930        C934   1.352       .  A
N930        H962   1.040       .  S
N931        C938   1.348       .  A
N931        C939   1.349       .  A
N932       C2349   1.351       .  A
N932        C936   1.349       .  A
N932        H963   1.041       .  S
N933        C940   1.348       .  A
N933        C941   1.351       .  A
C934        C942   1.386       .  A
C934        C950   1.415       .  A
C935       N2342   1.353   1_455  A
C935        C951   1.420       .  A
C935        C943   1.390       .  A
C936        C944   1.385       .  A
C936        C953   1.411       .  A
C937       N2344   1.353   1_455  A
C937        C952   1.412       .  A
C937        C945   1.388       .  A
C938        C950   1.407       .  A
C938        C946   1.387       .  A
C939        C953   1.406       .  A
C939        C947   1.386       .  A
C940        C948   1.388       .  A
C940        C951   1.410       .  A
C941        C949   1.385       .  A
C941        C952   1.409       .  A
C942       C2355   1.376       .  A
C942        H954   1.083       .  S
C943       C2354   1.376   1_455  A
C943        H955   1.083       .  S
C944       C2357   1.372       .  A
C944        H956   1.081       .  S
C945       C2356   1.372   1_455  A
C945        H957   1.078       .  S
C946        C947   1.378       .  A
C946        H958   1.082       .  S
C947        H959   1.082       .  S
C948        C949   1.379       .  A
C948        H960   1.082       .  S
C949        H961   1.083       .  S
C950       C1041   1.491       .  S
C951        C965   1.491       .  S
C952        C968   1.489       .  S
C953       C1004   1.489       .  S
C964        C965   1.345       .  D
C964        H966   1.090       .  S
C965        H967   1.081       .  S
C968        C969   1.341       .  D
C968        H970   1.085       .  S
C969        H971   1.088       .  S
C972        C973   1.353       .  D
C972        H974   1.080       .  S
C973        H975   1.083       .  S
C976        C977   1.351       .  D
C976        H978   1.084       .  S
C977        H979   1.086       .  S
C980        C981   1.345       .  D
C980        H982   1.086       .  S
C981        H983   1.086       .  S
C984        C985   1.349       .  D
C984        H986   1.088       .  S
C985        H987   1.083       .  S
C988        C989   1.348       .  D
C988        H990   1.084       .  S
C989        H991   1.077       .  S
C992        C993   1.350       .  D
C992        H994   1.078       .  S
C993        H995   1.088       .  S
C996        C997   1.351       .  D
C996        H998   1.086       .  S
C997        H999   1.088       .  S
C1000      C1001   1.350       .  D
C1000      H1002   1.089       .  S
C1001      H1003   1.083       .  S
C1004      C1005   1.348       .  D
C1004      H1006   1.083       .  S
C1005      H1007   1.089       .  S
C1008      C1009   1.351       .  D
C1008      H1010   1.088       .  S
C1009      H1011   1.083       .  S
C1012      C1013   1.341       .  D
C1012      H1014   1.085       .  S
C1013      H1015   1.086       .  S
C1016      C1017   1.345       .  D
C1016      H1018   1.084       .  S
C1017      H1019   1.085       .  S
C1020      C1021   1.349       .  D
C1020      H1022   1.085       .  S
C1021      H1023   1.088       .  S
C1024      C1025   1.356       .  D
C1024      H1026   1.085       .  S
C1025      H1027   1.085       .  S
C1028      C1029   1.355       .  D
C1028      H1030   1.089       .  S
C1029      H1031   1.079       .  S
C1032      C1033   1.350       .  D
C1032      H1034   1.079       .  S
C1033      H1035   1.089       .  S
C1036      C1037   1.350       .  D
C1036      H1038   1.078       .  S
C1037      H1039   1.084       .  S
C1040      C1041   1.346       .  D
C1040      H1042   1.089       .  S
C1041      H1043   1.079       .  S
C1044      C1045   1.357       .  D
C1044      H1046   1.089       .  S
C1045      H1047   1.078       .  S
C1048      C1049   1.353       .  D
C1048      H1050   1.089       .  S
C1049      H1051   1.080       .  S
C1052      C1053   1.346       .  D
C1052      H1054   1.081       .  S
C1053      H1055   1.083       .  S
C1056      C1057   1.353       .  D
C1056      H1058   1.088       .  S
C1057      H1059   1.082       .  S
N1060      N1061   1.324       .  A
N1060      N1066   1.317       .  A
N1060     Mn2148   2.218   1_455  S
N1061      C1068   1.359       .  A
N1062      N1064   1.315       .  A
N1062      N1063   1.322       .  A
N1062     Mn2490   2.225   1_565  S
N1063      C1069   1.360       .  A
N1064      N1065   1.322       .  A
N1065      C1069   1.355       .  A
N1066      N1067   1.318       .  A
N1066     Mn1078   2.207   1_455  S
N1067      C1068   1.356       .  A
C1068      C1282   1.545       .  S
C1069      C1106   1.545       .  S
N1070      N1076   1.319       .  A
N1070      N1071   1.320       .  A
N1070     Mn2512   2.234       .  S
N1071      C1079   1.359       .  A
N1072      N1073   1.328       .  A
N1072      N1074   1.316       .  A
N1073      C1080   1.357       .  A
N1074      N1075   1.321       .  A
N1074     Mn1100   2.236   1_455  S
N1075      C1080   1.360       .  A
N1076      N1077   1.328       .  A
N1076     Mn1784   2.223       .  S
N1077      C1079   1.357       .  A
Mn1078     N2474   2.214       .  S
Mn1078     N1782   2.224   1_565  S
C1079      C1176   1.538       .  S
C1080      C1281   1.541       .  S
N1081      N1082   1.331       .  A
N1081      N1087   1.318       .  A
N1081     Mn1089   2.233       .  S
N1082      C1090   1.360       .  A
N1083      N1085   1.313       .  A
N1083      N1084   1.321       .  A
N1083     Mn1807   2.210   1_465  S
N1084      C1091   1.357       .  A
N1085      N1086   1.324       .  A
N1085     Mn2501   2.210   1_456  S
N1086      C1091   1.359       .  A
N1087      N1088   1.323       .  A
N1088      C1090   1.362       .  A
Mn1089     N2119   2.208   1_556  S
Mn1089     N2497   2.203       .  S
Mn1089    Cl1455   2.568   1_565  S
C1090      C1105   1.556       .  S
C1091      C1211   1.546       .  S
N1092      N1093   1.331       .  A
N1092      N1098   1.319       .  A
N1093      C1103   1.365       .  A
N1094      N1095   1.318       .  A
N1094      N1096   1.316       .  A
N1094     Mn1101   2.209       .  S
N1095      C1104   1.355       .  A
N1096      N1097   1.330       .  A
N1096     Mn2159   2.234   1_556  S
N1097      C1104   1.362       .  A
N1098      N1099   1.319       .  A
N1098     Mn2513   2.209   1_455  S
N1099      C1103   1.353       .  A
Mn1100     N2482   2.241       .  S
Mn1100     N2155   2.233       .  S
Mn1100    Cl1102   2.555       .  S
Mn1101     N1789   2.216       .  S
Mn1101     N2510   2.196       .  S
Mn1101    Cl2161   2.533   1_556  S
Cl1102    Mn1442   2.565       .  S
Cl1102    Mn2160   2.556       .  S
C1103      C1246   1.547       .  S
C1104      C1141   1.548       .  S
C1105      C1401   1.529       .  S
C1105      C1406   1.531       .  S
C1105      C1409   1.537       .  S
C1106      C1390   1.529       .  S
C1106      C1393   1.527       .  S
C1106      C1397   1.532       .  S
N1107      C1112   1.350       .  A
N1107      H1139   1.041       .  S
N1108      C1115   1.353       .  A
N1108      C1116   1.352       .  A
N1109      C1114   1.354       .  A
N1109      H1140   1.039       .  S
N1110      C1117   1.352       .  A
N1110      C1118   1.354       .  A
C1111      C1119   1.390       .  A
C1111      C1127   1.412       .  A
C1112      C1128   1.412       .  A
C1112      C1120   1.387       .  A
C1113      C1121   1.389       .  A
C1113      C1130   1.416       .  A
C1114      C1129   1.415       .  A
C1114      C1122   1.387       .  A
C1115      C1127   1.416       .  A
C1115      C1123   1.386       .  A
C1116      C1130   1.416       .  A
C1116      C1124   1.387       .  A
C1117      C1125   1.387       .  A
C1117      C1128   1.416       .  A
C1118      C1126   1.385       .  A
C1118      C1129   1.416       .  A
C1119      H1131   1.078       .  S
C1120      H1132   1.083       .  S
C1121      H1133   1.083       .  S
C1122      H1134   1.083       .  S
C1123      C1124   1.383       .  A
C1123      H1135   1.081       .  S
C1124      H1136   1.082       .  S
C1125      C1126   1.380       .  A
C1125      H1137   1.082       .  S
C1126      H1138   1.082       .  S
C1127      C1402   1.494       .  S
C1128      C1398   1.492       .  S
C1129      C1382   1.503       .  S
C1130      C1385   1.499       .  S
C1141      C1369   1.531       .  S
C1141      C1374   1.514       .  S
C1141      C1377   1.540       .  S
N1142      C1146   1.353       .  A
N1142      H1174   1.039       .  S
N1143      C1150   1.349       .  A
N1143      C1151   1.349       .  A
N1144      C1148   1.349       .  A
N1144      H1175   1.041       .  S
N1145      C1152   1.352       .  A
N1145      C1153   1.356       .  A
C1146      C1154   1.385       .  A
C1146      C1162   1.415       .  A
C1147      C1163   1.419       .  A
C1147      C1155   1.390       .  A
C1148      C1156   1.384       .  A
C1148      C1165   1.409       .  A
C1149      C1164   1.416       .  A
C1149      C1157   1.390       .  A
C1150      C1162   1.410       .  A
C1150      C1158   1.387       .  A
C1151      C1165   1.407       .  A
C1151      C1159   1.385       .  A
C1152      C1160   1.388       .  A
C1152      C1163   1.420       .  A
C1153      C1161   1.385       .  A
C1153      C1164   1.419       .  A
C1154      H1166   1.081       .  S
C1155      H1167   1.083       .  S
C1156      H1168   1.083       .  S
C1157      H1169   1.077       .  S
C1158      C1159   1.378       .  A
C1158      H1170   1.082       .  S
C1159      H1171   1.082       .  S
C1160      C1161   1.383       .  A
C1160      H1172   1.082       .  S
C1161      H1173   1.082       .  S
C1162      C1405   1.494       .  S
C1163      C1378   1.498       .  S
C1164      C1365   1.502       .  S
C1165      C1389   1.492       .  S
C1176      C1358   1.525       .  S
C1176      C1361   1.532       .  S
C1176      C1366   1.536       .  S
N1177      C1182   1.353       .  A
N1177      H1209   1.039       .  S
N1178      C1185   1.347       .  A
N1178      C1186   1.344       .  A
N1179      C1184   1.352       .  A
N1179      H1210   1.039       .  S
N1180      C1187   1.353       .  A
N1180      C1188   1.354       .  A
C1181      C1189   1.384       .  A
C1181      C1197   1.409       .  A
C1182      C1198   1.415       .  A
C1182      C1190   1.387       .  A
C1183      C1191   1.386       .  A
C1183      C1200   1.413       .  A
C1184      C1199   1.412       .  A
C1184      C1192   1.386       .  A
C1185      C1197   1.400       .  A
C1185      C1193   1.385       .  A
C1186      C1200   1.401       .  A
C1186      C1194   1.387       .  A
C1187      C1195   1.387       .  A
C1187      C1198   1.416       .  A
C1188      C1196   1.386       .  A
C1188      C1199   1.417       .  A
C1189      H1201   1.078       .  S
C1190      H1202   1.083       .  S
C1191      H1203   1.077       .  S
C1192      H1204   1.083       .  S
C1193      C1194   1.374       .  A
C1193      H1205   1.082       .  S
C1194      H1206   1.083       .  S
C1195      C1196   1.379       .  A
C1195      H1207   1.082       .  S
C1196      H1208   1.082       .  S
C1197      C1373   1.484       .  S
C1198      C1362   1.499       .  S
C1199      C1349   1.499       .  S
C1200      C1354   1.478       .  S
C1211      C1341   1.539       .  S
C1211      C1346   1.538       .  S
C1211      C1386   1.531       .  S
N1212      C2629   1.352       .  A
N1212      C1216   1.354       .  A
N1212      H1244   1.042       .  S
N1213      C1220   1.352       .  A
N1213      C1221   1.354       .  A
N1214      C2631   1.346       .  A
N1214      C1218   1.348       .  A
N1214      H1245   1.043       .  S
N1215      C1222   1.353       .  A
N1215      C1223   1.353       .  A
C1216      C1224   1.388       .  A
C1216      C1232   1.415       .  A
C1217      N2624   1.353       .  A
C1217      C1233   1.419       .  A
C1217      C1225   1.388       .  A
C1218      C1226   1.389       .  A
C1218      C1235   1.407       .  A
C1219      N2626   1.347       .  A
C1219      C1234   1.407       .  A
C1219      C1227   1.390       .  A
C1220      C1232   1.421       .  A
C1220      C1228   1.388       .  A
C1221      C1235   1.418       .  A
C1221      C1229   1.385       .  A
C1222      C1230   1.387       .  A
C1222      C1233   1.419       .  A
C1223      C1231   1.386       .  A
C1223      C1234   1.417       .  A
C1224      C2637   1.373       .  A
C1224      H1236   1.077       .  S
C1225      C2636   1.377   1_455  A
C1225      H1237   1.083       .  S
C1226      C2639   1.363       .  A
C1226      H1238   1.076       .  S
C1227      C2638   1.360   1_455  A
C1227      H1239   1.076       .  S
C1228      C1229   1.386       .  A
C1228      H1240   1.082       .  S
C1229      H1241   1.082       .  S
C1230      C1231   1.385       .  A
C1230      H1242   1.082       .  S
C1231      H1243   1.082       .  S
C1232      C1410   1.499       .  S
C1233      C1345   1.508       .  S
C1234      C1338   1.487       .  S
C1235      C1370   1.494       .  S
C1246      C1333   1.544       .  S
C1246      C1337   1.528       .  S
C1246      C1353   1.510       .  S
N1247      C1252   1.352       .  A
N1247      H1279   1.040       .  S
N1248      C1255   1.355       .  A
N1248      C1256   1.352       .  A
N1249      C1254   1.354       .  A
N1249      H1280   1.041       .  S
N1250      C1257   1.351       .  A
N1250      C1258   1.351       .  A
C1251      C1259   1.390       .  A
C1251      C1267   1.413       .  A
C1252      C1268   1.416       .  A
C1252      C1260   1.385       .  A
C1253      C1261   1.388       .  A
C1253      C1270   1.414       .  A
C1254      C1269   1.418       .  A
C1254      C1262   1.386       .  A
C1255      C1267   1.418       .  A
C1255      C1263   1.385       .  A
C1256      C1270   1.420       .  A
C1256      C1264   1.388       .  A
C1257      C1265   1.385       .  A
C1257      C1268   1.411       .  A
C1258      C1266   1.387       .  A
C1258      C1269   1.413       .  A
C1259      H1271   1.077       .  S
C1260      H1272   1.083       .  S
C1261      H1273   1.083       .  S
C1262      H1274   1.083       .  S
C1263      C1264   1.384       .  A
C1263      H1275   1.082       .  S
C1264      H1276   1.082       .  S
C1265      C1266   1.380       .  A
C1265      H1277   1.082       .  S
C1266      H1278   1.082       .  S
C1267      C1330   1.501       .  S
C1268      C1325   1.499       .  S
C1269      C1342   1.503       .  S
C1270      C1334   1.498       .  S
C1281      C1322   1.525       .  S
C1281      C1329   1.537       .  S
C1281      C1350   1.532       .  S
C1282      C1317   1.526       .  S
C1282      C1326   1.535       .  S
C1282      C1381   1.534       .  S
N1283      C2700   1.351       .  A
N1283      C1287   1.352       .  A
N1283      H1315   1.039       .  S
N1284      C1291   1.351       .  A
N1284      C1292   1.350       .  A
N1285      C2702   1.356       .  A
N1285      C1289   1.354       .  A
N1285      H1316   1.039       .  S
N1286      C1293   1.351       .  A
N1286      C1294   1.351       .  A
C1287      C1295   1.387       .  A
C1287      C1303   1.415       .  A
C1288      N2695   1.353       .  A
C1288      C1304   1.419       .  A
C1288      C1296   1.388       .  A
C1289      C1297   1.387       .  A
C1289      C1306   1.419       .  A
C1290      N2697   1.354       .  A
C1290      C1305   1.420       .  A
C1290      C1298   1.387       .  A
C1291      C1303   1.409       .  A
C1291      C1299   1.386       .  A
C1292      C1306   1.410       .  A
C1292      C1300   1.387       .  A
C1293      C1301   1.386       .  A
C1293      C1304   1.410       .  A
C1294      C1302   1.387       .  A
C1294      C1305   1.411       .  A
C1295      C2708   1.375       .  A
C1295      H1307   1.083       .  S
C1296      C2707   1.376   1_455  A
C1296      H1308   1.083       .  S
C1297      C2710   1.377       .  A
C1297      H1309   1.081       .  S
C1298      C2709   1.377   1_455  A
C1298      H1310   1.081       .  S
C1299      C1300   1.377       .  A
C1299      H1311   1.082       .  S
C1300      H1312   1.082       .  S
C1301      C1302   1.377       .  A
C1301      H1313   1.082       .  S
C1302      H1314   1.083       .  S
C1303      C1394   1.493       .  S
C1304      C1318   1.495       .  S
C1305      C1321   1.496       .  S
C1306      C1357   1.495       .  S
C1317      C1318   1.347       .  D
C1317      H1319   1.089       .  S
C1318      H1320   1.081       .  S
C1321      C1322   1.345       .  D
C1321      H1323   1.084       .  S
C1322      H1324   1.089       .  S
C1325      C1326   1.352       .  D
C1325      H1327   1.080       .  S
C1326      H1328   1.083       .  S
C1329      C1330   1.347       .  D
C1329      H1331   1.086       .  S
C1330      H1332   1.084       .  S
C1333      C1334   1.358       .  D
C1333      H1335   1.085       .  S
C1334      H1336   1.084       .  S
C1337      C1338   1.343       .  D
C1337      H1339   1.085       .  S
C1338      H1340   1.082       .  S
C1341      C1342   1.351       .  D
C1341      H1343   1.084       .  S
C1342      H1344   1.082       .  S
C1345      C1346   1.355       .  D
C1345      H1347   1.083       .  S
C1346      H1348   1.089       .  S
C1349      C1350   1.356       .  D
C1349      H1351   1.084       .  S
C1350      H1352   1.088       .  S
C1353      C1354   1.341       .  D
C1353      H1355   1.089       .  S
C1354      H1356   1.086       .  S
C1357      C1358   1.346       .  D
C1357      H1359   1.084       .  S
C1358      H1360   1.089       .  S
C1361      C1362   1.352       .  D
C1361      H1363   1.088       .  S
C1362      H1364   1.084       .  S
C1365      C1366   1.349       .  D
C1365      H1367   1.085       .  S
C1366      H1368   1.087       .  S
C1369      C1370   1.346       .  D
C1369      H1371   1.084       .  S
C1370      H1372   1.083       .  S
C1373      C1374   1.344       .  D
C1373      H1375   1.085       .  S
C1374      H1376   1.089       .  S
C1377      C1378   1.354       .  D
C1377      H1379   1.084       .  S
C1378      H1380   1.085       .  S
C1381      C1382   1.354       .  D
C1381      H1383   1.089       .  S
C1382      H1384   1.080       .  S
C1385      C1386   1.353       .  D
C1385      H1387   1.081       .  S
C1386      H1388   1.089       .  S
C1389      C1390   1.353       .  D
C1389      H1391   1.077       .  S
C1390      H1392   1.083       .  S
C1393      C1394   1.348       .  D
C1393      H1395   1.089       .  S
C1394      H1396   1.079       .  S
C1397      C1398   1.353       .  D
C1397      H1399   1.089       .  S
C1398      H1400   1.077       .  S
C1401      C1402   1.343       .  D
C1401      H1403   1.087       .  S
C1402      H1404   1.086       .  S
C1405      C1406   1.349       .  D
C1405      H1407   1.086       .  S
C1406      H1408   1.085       .  S
C1409      C1410   1.354       .  D
C1409      H1411   1.085       .  S
C1410      H1412   1.086       .  S
N1413      N1414   1.328       .  A
N1413      N1419   1.320       .  A
N1414      C1421   1.360       .  A
N1415      N1417   1.318       .  A
N1415      N1416   1.320       .  A
N1416      C1422   1.356       .  A
N1417      N1418   1.323       .  A
N1417     Mn1795   2.213   1_554  S
N1418      C1422   1.358       .  A
N1419      N1420   1.323       .  A
N1419     Mn1431   2.237       .  S
N1420      C1421   1.359       .  A
C1421      C1635   1.548       .  S
C1422      C1459   1.542       .  S
N1423      N1429   1.319       .  A
N1423      N1424   1.320       .  A
N1424      C1432   1.358       .  A
N1425      N1426   1.330       .  A
N1425      N1427   1.317       .  A
N1425     Mn2137   2.225       .  S
N1426      C1433   1.359       .  A
N1427      N1428   1.321       .  A
N1427     Mn1453   2.233   1_554  S
N1428      C1433   1.358       .  A
N1429      N1430   1.330       .  A
N1430      C1432   1.360       .  A
Mn1431     N2131   2.221       .  S
Mn1431    Cl2161   2.550       .  S
C1432      C1529   1.541       .  S
C1433      C1634   1.541       .  S
N1434      N1435   1.330       .  A
N1434      N1440   1.318       .  A
N1434     Mn1442   2.226       .  S
N1435      C1443   1.359       .  A
N1436      N1438   1.314       .  A
N1436      N1437   1.317       .  A
N1437      C1444   1.357       .  A
N1438      N1439   1.320       .  A
N1439      C1444   1.355       .  A
N1440      N1441   1.320       .  A
N1440     Mn2160   2.242       .  S
N1441      C1443   1.360       .  A
Mn1442     N1770   2.218       .  S
C1443      C1458   1.551       .  S
C1444      C1564   1.536       .  S
N1445      N1446   1.330       .  A
N1445      N1451   1.318       .  A
N1445     Mn1806   2.259       .  S
N1446      C1456   1.366       .  A
N1447      N1448   1.319       .  A
N1447      N1449   1.317       .  A
N1447     Mn1454   2.205   1_545  S
N1448      C1457   1.356       .  A
N1449      N1450   1.326       .  A
N1450      C1457   1.360       .  A
N1451      N1452   1.318       .  A
N1452      C1456   1.351       .  A
Mn1453     N1798   2.226       .  S
Mn1453    Cl1455   2.557       .  S
Mn1454     N2146   2.207       .  S
Cl1455    Mn2137   2.563   1_556  S
C1456      C1599   1.544       .  S
C1457      C1494   1.541       .  S
C1458      C1754   1.520       .  S
C1458      C1759   1.528       .  S
C1458      C1762   1.534       .  S
C1459      C1743   1.523       .  S
C1459      C1746   1.525       .  S
C1459      C1750   1.527       .  S
N1460      C1465   1.349       .  A
N1460      C1817   1.350   1_554  A
N1460      H1492   1.041       .  S
N1461      C1468   1.350       .  A
N1461      C1469   1.348       .  A
N1462      C1467   1.348       .  A
N1462      C1819   1.350   1_554  A
N1462      H1493   1.041       .  S
N1463      C1470   1.350       .  A
N1463      C1471   1.350       .  A
C1464      N1813   1.350       .  A
C1464      C1472   1.389       .  A
C1464      C1480   1.409       .  A
C1465      C1481   1.408       .  A
C1465      C1473   1.384       .  A
C1466      N1815   1.349       .  A
C1466      C1474   1.388       .  A
C1466      C1483   1.410       .  A
C1467      C1482   1.403       .  A
C1467      C1475   1.384       .  A
C1468      C1480   1.410       .  A
C1468      C1476   1.385       .  A
C1469      C1483   1.410       .  A
C1469      C1477   1.386       .  A
C1470      C1478   1.386       .  A
C1470      C1481   1.412       .  A
C1471      C1479   1.386       .  A
C1471      C1482   1.412       .  A
C1472      C1826   1.368       .  A
C1472      H1484   1.078       .  S
C1473      C1825   1.370   1_554  A
C1473      H1485   1.083       .  S
C1474      C1828   1.373       .  A
C1474      H1486   1.083       .  S
C1475      C1827   1.359   1_554  A
C1475      H1487   1.077       .  S
C1476      C1477   1.381       .  A
C1476      H1488   1.081       .  S
C1477      H1489   1.083       .  S
C1478      C1479   1.385       .  A
C1478      H1490   1.083       .  S
C1479      H1491   1.082       .  S
C1480      C1755   1.486       .  S
C1481      C1751   1.491       .  S
C1482      C1735   1.484       .  S
C1483      C1738   1.483       .  S
C1494      C1722   1.532       .  S
C1494      C1727   1.514       .  S
C1494      C1730   1.540       .  S
N1495      C2206   1.354       .  A
N1495      C1499   1.354       .  A
N1495      H1527   1.039       .  S
N1496      C1503   1.346       .  A
N1496      C1504   1.346       .  A
N1497      C2208   1.352       .  A
N1497      C1501   1.348       .  A
N1497      H1528   1.040       .  S
N1498      C1505   1.352       .  A
N1498      C1506   1.353       .  A
C1499      C1507   1.384       .  A
C1499      C1515   1.416       .  A
C1500      N2201   1.353       .  A
C1500      C1516   1.417       .  A
C1500      C1508   1.388       .  A
C1501      C1509   1.383       .  A
C1501      C1518   1.408       .  A
C1502      N2203   1.352   1_545  A
C1502      C1517   1.416       .  A
C1502      C1510   1.392       .  A
C1503      C1515   1.403       .  A
C1503      C1511   1.387       .  A
C1504      C1518   1.400       .  A
C1504      C1512   1.385       .  A
C1505      C1513   1.388       .  A
C1505      C1516   1.419       .  A
C1506      C1514   1.386       .  A
C1506      C1517   1.417       .  A
C1507      C2214   1.377       .  A
C1507      H1519   1.081       .  S
C1508      C2213   1.376   1_545  A
C1508      H1520   1.083       .  S
C1509      C2216   1.369       .  A
C1509      H1521   1.083       .  S
C1510      C2215   1.370   1_545  A
C1510      H1522   1.077       .  S
C1511      C1512   1.376       .  A
C1511      H1523   1.082       .  S
C1512      H1524   1.082       .  S
C1513      C1514   1.382       .  A
C1513      H1525   1.082       .  S
C1514      H1526   1.083       .  S
C1515      C1758   1.489       .  S
C1516      C1731   1.500       .  S
C1517      C1718   1.493       .  S
C1518      C1742   1.481       .  S
C1529      C1711   1.518       .  S
C1529      C1714   1.523       .  S
C1529      C1719   1.528       .  S
N1530      C1535   1.350   1_556  A
N1530      C1887   1.352       .  A
N1530      H1562   1.040       .  S
N1531      C1538   1.346       .  A
N1531      C1539   1.346       .  A
N1532      C1537   1.352   1_556  A
N1532      C1889   1.349       .  A
N1532      H1563   1.040       .  S
N1533      C1540   1.352       .  A
N1533      C1541   1.354       .  A
C1534      N1883   1.353       .  A
C1534      C1542   1.385       .  A
C1534      C1550   1.414       .  A
C1535      C1551   1.412       .  A
C1535      C1543   1.387       .  A
C1536      N1885   1.351       .  A
C1536      C1544   1.384       .  A
C1536      C1553   1.413       .  A
C1537      C1552   1.411       .  A
C1537      C1545   1.386       .  A
C1538      C1550   1.401       .  A
C1538      C1546   1.386       .  A
C1539      C1553   1.400       .  A
C1539      C1547   1.386       .  A
C1540      C1548   1.387       .  A
C1540      C1551   1.415       .  A
C1541      C1549   1.386       .  A
C1541      C1552   1.415       .  A
C1542      C1896   1.375       .  A
C1542      H1554   1.080       .  S
C1543      C1895   1.375   1_554  A
C1543      H1555   1.083       .  S
C1544      C1898   1.374       .  A
C1544      H1556   1.076       .  S
C1545      C1897   1.375   1_554  A
C1545      H1557   1.083       .  S
C1546      C1547   1.373       .  A
C1546      H1558   1.083       .  S
C1547      H1559   1.082       .  S
C1548      C1549   1.379       .  A
C1548      H1560   1.082       .  S
C1549      H1561   1.082       .  S
C1550      C1726   1.483       .  S
C1551      C1715   1.490       .  S
C1552      C1702   1.500       .  S
C1553      C1707   1.482       .  S
C1564      C1694   1.525       .  S
C1564      C1699   1.523       .  S
C1564      C1739   1.522       .  S
N1565      C1569   1.355   1_455  A
N1565      H1597   1.040       .  S
N1566      C1573   1.354       .  A
N1566      C1574   1.354       .  A
N1567      C1571   1.352   1_455  A
N1567      H1598   1.041       .  S
N1568      C1575   1.348       .  A
N1568      C1576   1.348       .  A
C1569      C1577   1.391       .  A
C1569      C1585   1.417       .  A
C1570      C1586   1.415       .  A
C1570      C1578   1.385       .  A
C1571      C1579   1.393       .  A
C1571      C1588   1.415       .  A
C1572      C1587   1.406       .  A
C1572      C1580   1.386       .  A
C1573      C1585   1.422       .  A
C1573      C1581   1.388       .  A
C1574      C1588   1.420       .  A
C1574      C1582   1.386       .  A
C1575      C1583   1.386       .  A
C1575      C1586   1.407       .  A
C1576      C1584   1.386       .  A
C1576      C1587   1.407       .  A
C1577      H1589   1.077       .  S
C1578      H1590   1.083       .  S
C1579      H1591   1.076       .  S
C1580      H1592   1.077       .  S
C1581      C1582   1.385       .  A
C1581      H1593   1.082       .  S
C1582      H1594   1.082       .  S
C1583      C1584   1.381       .  A
C1583      H1595   1.082       .  S
C1584      H1596   1.082       .  S
C1585      C1763   1.498       .  S
C1586      C1698   1.493       .  S
C1587      C1691   1.477       .  S
C1588      C1723   1.497       .  S
C1599      C1686   1.543       .  S
C1599      C1690   1.522       .  S
C1599      C1706   1.512       .  S
N1600      C1605   1.347       .  A
N1600      C2310   1.353       .  A
N1600      H1632   1.041       .  S
N1601      C1608   1.355       .  A
N1601      C1609   1.353       .  A
N1602      C1607   1.352       .  A
N1602      C2312   1.354       .  A
N1602      H1633   1.040       .  S
N1603      C1610   1.345       .  A
N1603      C1611   1.345       .  A
C1604      N2306   1.353   1_545  A
C1604      C1612   1.390       .  A
C1604      C1620   1.415       .  A
C1605      C1621   1.405       .  A
C1605      C1613   1.378       .  A
C1606      N2308   1.352   1_545  A
C1606      C1614   1.389       .  A
C1606      C1623   1.416       .  A
C1607      C1622   1.414       .  A
C1607      C1615   1.382       .  A
C1608      C1620   1.418       .  A
C1608      C1616   1.386       .  A
C1609      C1623   1.421       .  A
C1609      C1617   1.388       .  A
C1610      C1618   1.385       .  A
C1610      C1621   1.398       .  A
C1611      C1619   1.387       .  A
C1611      C1622   1.400       .  A
C1612      C2319   1.372   1_545  A
C1612      H1624   1.078       .  S
C1613      C2318   1.369       .  A
C1613      H1625   1.079       .  S
C1614      C2321   1.377   1_545  A
C1614      H1626   1.083       .  S
C1615      C2320   1.370       .  A
C1615      H1627   1.083       .  S
C1616      C1617   1.384       .  A
C1616      H1628   1.082       .  S
C1617      H1629   1.082       .  S
C1618      C1619   1.377       .  A
C1618      H1630   1.082       .  S
C1619      H1631   1.082       .  S
C1620      C1683   1.500       .  S
C1621      C1678   1.480       .  S
C1622      C1695   1.488       .  S
C1623      C1687   1.501       .  S
C1634      C1675   1.526       .  S
C1634      C1682   1.535       .  S
C1634      C1703   1.535       .  S
C1635      C1670   1.520       .  S
C1635      C1679   1.519       .  S
C1635      C1734   1.521       .  S
N1636      C1640   1.352       .  A
N1636      H1668   1.040       .  S
N1637      C1644   1.348       .  A
N1637      C1645   1.349       .  A
N1638      C1642   1.350       .  A
N1638      H1669   1.040       .  S
N1639      C1646   1.349       .  A
N1639      C1647   1.349       .  A
C1640      C1648   1.386       .  A
C1640      C1656   1.415       .  A
C1641      C1657   1.410       .  A
C1641      C1649   1.387       .  A
C1642      C1650   1.385       .  A
C1642      C1659   1.414       .  A
C1643      C1658   1.418       .  A
C1643      C1651   1.386       .  A
C1644      C1656   1.406       .  A
C1644      C1652   1.387       .  A
C1645      C1659   1.406       .  A
C1645      C1653   1.386       .  A
C1646      C1654   1.387       .  A
C1646      C1657   1.409       .  A
C1647      C1655   1.387       .  A
C1647      C1658   1.408       .  A
C1648      H1660   1.083       .  S
C1649      H1661   1.083       .  S
C1650      H1662   1.081       .  S
C1651      H1663   1.082       .  S
C1652      C1653   1.376       .  A
C1652      H1664   1.082       .  S
C1653      H1665   1.082       .  S
C1654      C1655   1.377       .  A
C1654      H1666   1.082       .  S
C1655      H1667   1.082       .  S
C1656      C1747   1.489       .  S
C1657      C1671   1.484       .  S
C1658      C1674   1.495       .  S
C1659      C1710   1.490       .  S
C1670      C1671   1.350       .  D
C1670      H1672   1.089       .  S
C1671      H1673   1.083       .  S
C1674      C1675   1.345       .  D
C1674      H1676   1.084       .  S
C1675      H1677   1.089       .  S
C1678      C1679   1.350       .  D
C1678      H1680   1.084       .  S
C1679      H1681   1.086       .  S
C1682      C1683   1.347       .  D
C1682      H1684   1.086       .  S
C1683      H1685   1.085       .  S
C1686      C1687   1.360       .  D
C1686      H1688   1.085       .  S
C1687      H1689   1.084       .  S
C1690      C1691   1.339       .  D
C1690      H1692   1.086       .  S
C1691      H1693   1.082       .  S
C1694      C1695   1.347       .  D
C1694      H1696   1.083       .  S
C1695      H1697   1.078       .  S
C1698      C1699   1.348       .  D
C1698      H1700   1.081       .  S
C1699      H1701   1.089       .  S
C1702      C1703   1.356       .  D
C1702      H1704   1.084       .  S
C1703      H1705   1.088       .  S
C1706      C1707   1.342       .  D
C1706      H1708   1.089       .  S
C1707      H1709   1.086       .  S
C1710      C1711   1.346       .  D
C1710      H1712   1.084       .  S
C1711      H1713   1.089       .  S
C1714      C1715   1.353       .  D
C1714      H1716   1.088       .  S
C1715      H1717   1.084       .  S
C1718      C1719   1.342       .  D
C1718      H1720   1.085       .  S
C1719      H1721   1.087       .  S
C1722      C1723   1.347       .  D
C1722      H1724   1.084       .  S
C1723      H1725   1.084       .  S
C1726      C1727   1.340       .  D
C1726      H1728   1.085       .  S
C1727      H1729   1.089       .  S
C1730      C1731   1.356       .  D
C1730      H1732   1.085       .  S
C1731      H1733   1.085       .  S
C1734      C1735   1.341       .  D
C1734      H1736   1.087       .  S
C1735      H1737   1.083       .  S
C1738      C1739   1.349       .  D
C1738      H1740   1.077       .  S
C1739      H1741   1.089       .  S
C1742      C1743   1.349       .  D
C1742      H1744   1.076       .  S
C1743      H1745   1.085       .  S
C1746      C1747   1.346       .  D
C1746      H1748   1.089       .  S
C1747      H1749   1.079       .  S
C1750      C1751   1.355       .  D
C1750      H1752   1.089       .  S
C1751      H1753   1.078       .  S
C1754      C1755   1.339       .  D
C1754      H1756   1.088       .  S
C1755      H1757   1.086       .  S
C1758      C1759   1.344       .  D
C1758      H1760   1.086       .  S
C1759      H1761   1.085       .  S
C1762      C1763   1.354       .  D
C1762      H1764   1.086       .  S
C1763      H1765   1.086       .  S
N1766      N1767   1.323       .  A
N1766      N1772   1.316       .  A
N1767      C1774   1.355       .  A
N1768      N1770   1.318       .  A
N1768      N1769   1.319       .  A
N1769      C1775   1.354       .  A
N1770      N1771   1.323       .  A
N1771      C1775   1.359       .  A
N1772      N1773   1.320       .  A
N1772     Mn1784   2.220       .  S
N1773      C1774   1.360       .  A
C1774      C1988   1.547       .  S
C1775      C1812   1.540       .  S
N1776      N1782   1.319       .  A
N1776      N1777   1.320       .  A
N1777      C1785   1.358       .  A
N1778      N1779   1.328       .  A
N1778      N1780   1.320       .  A
N1778     Mn2490   2.227       .  S
N1779      C1786   1.357       .  A
N1780      N1781   1.323       .  A
N1780     Mn1806   2.242       .  S
N1781      C1786   1.360       .  A
N1782      N1783   1.328       .  A
N1783      C1785   1.357       .  A
Mn1784     N2484   2.236       .  S
Mn1784    Cl2514   2.562       .  S
C1785      C1882   1.537       .  S
C1786      C1987   1.542       .  S
N1787      N1788   1.331       .  A
N1787      N1793   1.316       .  A
N1787     Mn1795   2.230       .  S
N1788      C1796   1.361       .  A
N1789      N1791   1.317       .  A
N1789      N1790   1.320       .  A
N1790      C1797   1.355       .  A
N1791      N1792   1.331       .  A
N1792      C1797   1.365       .  A
N1793      N1794   1.320       .  A
N1793     Mn2513   2.230       .  S
N1794      C1796   1.359       .  A
C1796      C1811   1.551       .  S
C1797      C1917   1.550       .  S
N1798      N1799   1.322       .  A
N1798      N1804   1.319       .  A
N1799      C1809   1.357       .  A
N1800      N1801   1.317       .  A
N1800      N1802   1.317       .  A
N1800     Mn1807   2.211       .  S
N1801      C1810   1.357       .  A
N1802      N1803   1.328       .  A
N1803      C1810   1.359       .  A
N1804      N1805   1.329       .  A
N1805      C1809   1.360       .  A
Mn1806    Cl1808   2.567       .  S
Mn1807     N2499   2.232   1_545  S
Cl1808    Mn2490   2.557       .  S
C1809      C1952   1.544       .  S
C1810      C1847   1.546       .  S
C1811      C2107   1.524       .  S
C1811      C2112   1.527       .  S
C1811      C2115   1.534       .  S
C1812      C2096   1.523       .  S
C1812      C2099   1.529       .  S
C1812      C2103   1.522       .  S
N1813      C1818   1.347       .  A
N1813      H1845   1.042       .  S
N1814      C1821   1.351       .  A
N1814      C1822   1.352       .  A
N1815      C1820   1.349       .  A
N1815      H1846   1.041       .  S
N1816      C1823   1.349       .  A
N1816      C1824   1.350       .  A
C1817      C1825   1.391       .  A
C1817      C1833   1.411       .  A
C1818      C1834   1.408       .  A
C1818      C1826   1.385       .  A
C1819      C1827   1.390       .  A
C1819      C1836   1.411       .  A
C1820      C1835   1.406       .  A
C1820      C1828   1.385       .  A
C1821      C1833   1.416       .  A
C1821      C1829   1.385       .  A
C1822      C1836   1.417       .  A
C1822      C1830   1.385       .  A
C1823      C1831   1.386       .  A
C1823      C1834   1.411       .  A
C1824      C1832   1.387       .  A
C1824      C1835   1.413       .  A
C1825      H1837   1.077       .  S
C1826      H1838   1.083       .  S
C1827      H1839   1.075       .  S
C1828      H1840   1.083       .  S
C1829      C1830   1.382       .  A
C1829      H1841   1.079       .  S
C1830      H1842   1.079       .  S
C1831      C1832   1.384       .  A
C1831      H1843   1.082       .  S
C1832      H1844   1.082       .  S
C1833      C2108   1.490       .  S
C1834      C2104   1.489       .  S
C1835      C2088   1.489       .  S
C1836      C2091   1.490       .  S
C1847      C2075   1.537       .  S
C1847      C2080   1.520       .  S
C1847      C2083   1.540       .  S
N1848      C2559   1.352       .  A
N1848      C1852   1.352       .  A
N1848      H1880   1.040       .  S
N1849      C1856   1.346       .  A
N1849      C1857   1.346       .  A
N1850      C2561   1.351       .  A
N1850      C1854   1.349       .  A
N1850      H1881   1.040       .  S
N1851      C1858   1.353       .  A
N1851      C1859   1.355       .  A
C1852      C1860   1.384       .  A
C1852      C1868   1.413       .  A
C1853      N2554   1.353   1_545  A
C1853      C1869   1.422       .  A
C1853      C1861   1.390       .  A
C1854      C1862   1.383       .  A
C1854      C1871   1.409       .  A
C1855      N2556   1.353   1_545  A
C1855      C1870   1.415       .  A
C1855      C1863   1.391       .  A
C1856      C1868   1.403       .  A
C1856      C1864   1.387       .  A
C1857      C1871   1.398       .  A
C1857      C1865   1.385       .  A
C1858      C1866   1.388       .  A
C1858      C1869   1.420       .  A
C1859      C1867   1.386       .  A
C1859      C1870   1.418       .  A
C1860      C2567   1.375       .  A
C1860      H1872   1.078       .  S
C1861      C2566   1.377   1_545  A
C1861      H1873   1.083       .  S
C1862      C2569   1.370       .  A
C1862      H1874   1.083       .  S
C1863      C2568   1.367   1_545  A
C1863      H1875   1.077       .  S
C1864      C1865   1.373       .  A
C1864      H1876   1.082       .  S
C1865      H1877   1.083       .  S
C1866      C1867   1.382       .  A
C1866      H1878   1.082       .  S
C1867      H1879   1.082       .  S
C1868      C2111   1.485       .  S
C1869      C2084   1.503       .  S
C1870      C2071   1.495       .  S
C1871      C2095   1.480       .  S
C1882      C2064   1.520       .  S
C1882      C2067   1.526       .  S
C1882      C2072   1.529       .  S
N1883      C1888   1.351       .  A
N1883      H1915   1.040       .  S
N1884      C1891   1.352       .  A
N1884      C1892   1.349       .  A
N1885      C1890   1.352       .  A
N1885      H1916   1.041       .  S
N1886      C1893   1.351       .  A
N1886      C1894   1.353       .  A
C1887      C1895   1.386       .  A
C1887      C1903   1.413       .  A
C1888      C1904   1.415       .  A
C1888      C1896   1.387       .  A
C1889      C1897   1.388       .  A
C1889      C1906   1.412       .  A
C1890      C1905   1.412       .  A
C1890      C1898   1.385       .  A
C1891      C1903   1.410       .  A
C1891      C1899   1.385       .  A
C1892      C1906   1.411       .  A
C1892      C1900   1.387       .  A
C1893      C1901   1.387       .  A
C1893      C1904   1.414       .  A
C1894      C1902   1.385       .  A
C1894      C1905   1.413       .  A
C1895      H1907   1.081       .  S
C1896      H1908   1.083       .  S
C1897      H1909   1.083       .  S
C1898      H1910   1.083       .  S
C1899      C1900   1.377       .  A
C1899      H1911   1.082       .  S
C1900      H1912   1.082       .  S
C1901      C1902   1.379       .  A
C1901      H1913   1.082       .  S
C1902      H1914   1.082       .  S
C1903      C2079   1.496       .  S
C1904      C2068   1.493       .  S
C1905      C2055   1.498       .  S
C1906      C2060   1.486       .  S
C1917      C2047   1.524       .  S
C1917      C2052   1.528       .  S
C1917      C2092   1.522       .  S
N1918      C1922   1.353   1_455  A
N1918      H1950   1.042       .  S
N1919      C1926   1.354       .  A
N1919      C1927   1.355       .  A
N1920      C1924   1.354   1_455  A
N1920      H1951   1.042       .  S
N1921      C1928   1.350       .  A
N1921      C1929   1.350       .  A
C1922      C1930   1.390       .  A
C1922      C1938   1.416       .  A
C1923      C1939   1.410       .  A
C1923      C1931   1.385       .  A
C1924      C1932   1.391       .  A
C1924      C1941   1.416       .  A
C1925      C1940   1.410       .  A
C1925      C1933   1.382       .  A
C1926      C1938   1.421       .  A
C1926      C1934   1.388       .  A
C1927      C1941   1.419       .  A
C1927      C1935   1.386       .  A
C1928      C1936   1.387       .  A
C1928      C1939   1.411       .  A
C1929      C1937   1.385       .  A
C1929      C1940   1.409       .  A
C1930      H1942   1.077       .  S
C1931      H1943   1.083       .  S
C1932      H1944   1.076       .  S
C1933      H1945   1.080       .  S
C1934      C1935   1.384       .  A
C1934      H1946   1.082       .  S
C1935      H1947   1.082       .  S
C1936      C1937   1.379       .  A
C1936      H1948   1.082       .  S
C1937      H1949   1.082       .  S
C1938      C2116   1.497       .  S
C1939      C2051   1.492       .  S
C1940      C2044   1.492       .  S
C1941      C2076   1.501       .  S
C1952      C2039   1.530       .  S
C1952      C2043   1.521       .  S
C1952      C2059   1.522       .  S
N1953      C1958   1.352       .  A
N1953      C2663   1.354       .  A
N1953      H1985   1.040       .  S
N1954      C1961   1.356       .  A
N1954      C1962   1.354       .  A
N1955      C1960   1.349       .  A
N1955      C2665   1.350       .  A
N1955      H1986   1.041       .  S
N1956      C1963   1.345       .  A
N1956      C1964   1.346       .  A
C1957      N2659   1.357   1_545  A
C1957      C1965   1.392       .  A
C1957      C1973   1.422       .  A
C1958      C1974   1.417       .  A
C1958      C1966   1.385       .  A
C1959      N2661   1.354   1_545  A
C1959      C1967   1.394       .  A
C1959      C1976   1.423       .  A
C1960      C1975   1.406       .  A
C1960      C1968   1.383       .  A
C1961      C1973   1.423       .  A
C1961      C1969   1.386       .  A
C1962      C1976   1.422       .  A
C1962      C1970   1.387       .  A
C1963      C1971   1.387       .  A
C1963      C1974   1.400       .  A
C1964      C1972   1.386       .  A
C1964      C1975   1.400       .  A
C1965      C2672   1.369   1_545  A
C1965      H1977   1.076       .  S
C1966      C2671   1.372       .  A
C1966      H1978   1.083       .  S
C1967      C2674   1.369   1_545  A
C1967      H1979   1.076       .  S
C1968      C2673   1.373       .  A
C1968      H1980   1.077       .  S
C1969      C1970   1.383       .  A
C1969      H1981   1.081       .  S
C1970      H1982   1.081       .  S
C1971      C1972   1.376       .  A
C1971      H1983   1.083       .  S
C1972      H1984   1.083       .  S
C1973      C2036   1.506       .  S
C1974      C2031   1.485       .  S
C1975      C2048   1.478       .  S
C1976      C2040   1.497       .  S
C1987      C2028   1.528       .  S
C1987      C2035   1.543       .  S
C1987      C2056   1.528       .  S
C1988      C2023   1.529       .  S
C1988      C2032   1.526       .  S
C1988      C2087   1.530       .  S
N1989      C1993   1.353       .  A
N1989      H2021   1.041       .  S
N1990      C1997   1.350       .  A
N1990      C1998   1.349       .  A
N1991      C1995   1.351       .  A
N1991      H2022   1.040       .  S
N1992      C1999   1.351       .  A
N1992      C2000   1.350       .  A
C1993      C2001   1.386       .  A
C1993      C2009   1.414       .  A
C1994      C2010   1.416       .  A
C1994      C2002   1.387       .  A
C1995      C2003   1.386       .  A
C1995      C2012   1.415       .  A
C1996      C2011   1.415       .  A
C1996      C2004   1.387       .  A
C1997      C2009   1.408       .  A
C1997      C2005   1.386       .  A
C1998      C2012   1.409       .  A
C1998      C2006   1.387       .  A
C1999      C2007   1.386       .  A
C1999      C2010   1.412       .  A
C2000      C2008   1.387       .  A
C2000      C2011   1.413       .  A
C2001      H2013   1.083       .  S
C2002      H2014   1.083       .  S
C2003      H2015   1.080       .  S
C2004      H2016   1.080       .  S
C2005      C2006   1.378       .  A
C2005      H2017   1.082       .  S
C2006      H2018   1.082       .  S
C2007      C2008   1.380       .  A
C2007      H2019   1.082       .  S
C2008      H2020   1.083       .  S
C2009      C2100   1.494       .  S
C2010      C2024   1.497       .  S
C2011      C2027   1.485       .  S
C2012      C2063   1.488       .  S
C2023      C2024   1.351       .  D
C2023      H2025   1.089       .  S
C2024      H2026   1.081       .  S
C2027      C2028   1.347       .  D
C2027      H2029   1.083       .  S
C2028      H2030   1.089       .  S
C2031      C2032   1.344       .  D
C2031      H2033   1.078       .  S
C2032      H2034   1.084       .  S
C2035      C2036   1.352       .  D
C2035      H2037   1.086       .  S
C2036      H2038   1.085       .  S
C2039      C2040   1.345       .  D
C2039      H2041   1.086       .  S
C2040      H2042   1.085       .  S
C2043      C2044   1.352       .  D
C2043      H2045   1.088       .  S
C2044      H2046   1.083       .  S
C2047      C2048   1.346       .  D
C2047      H2049   1.086       .  S
C2048      H2050   1.083       .  S
C2051      C2052   1.354       .  D
C2051      H2053   1.082       .  S
C2052      H2054   1.088       .  S
C2055      C2056   1.353       .  D
C2055      H2057   1.086       .  S
C2056      H2058   1.089       .  S
C2059      C2060   1.350       .  D
C2059      H2061   1.089       .  S
C2060      H2062   1.083       .  S
C2063      C2064   1.347       .  D
C2063      H2065   1.083       .  S
C2064      H2066   1.089       .  S
C2067      C2068   1.351       .  D
C2067      H2069   1.089       .  S
C2068      H2070   1.083       .  S
C2071      C2072   1.346       .  D
C2071      H2073   1.085       .  S
C2072      H2074   1.087       .  S
C2075      C2076   1.349       .  D
C2075      H2077   1.082       .  S
C2076      H2078   1.085       .  S
C2079      C2080   1.349       .  D
C2079      H2081   1.086       .  S
C2080      H2082   1.088       .  S
C2083      C2084   1.353       .  D
C2083      H2085   1.082       .  S
C2084      H2086   1.084       .  S
C2087      C2088   1.356       .  D
C2087      H2089   1.089       .  S
C2088      H2090   1.077       .  S
C2091      C2092   1.346       .  D
C2091      H2093   1.085       .  S
C2092      H2094   1.087       .  S
C2095      C2096   1.346       .  D
C2095      H2097   1.077       .  S
C2096      H2098   1.085       .  S
C2099      C2100   1.349       .  D
C2099      H2101   1.089       .  S
C2100      H2102   1.080       .  S
C2103      C2104   1.354       .  D
C2103      H2105   1.090       .  S
C2104      H2106   1.078       .  S
C2107      C2108   1.342       .  D
C2107      H2109   1.086       .  S
C2108      H2110   1.086       .  S
C2111      C2112   1.344       .  D
C2111      H2113   1.086       .  S
C2112      H2114   1.085       .  S
C2115      C2116   1.351       .  D
C2115      H2117   1.085       .  S
C2116      H2118   1.086       .  S
N2119      N2120   1.322       .  A
N2119      N2125   1.316       .  A
N2120      C2127   1.357       .  A
N2121      N2123   1.318       .  A
N2121      N2122   1.320       .  A
N2122      C2128   1.356       .  A
N2123      N2124   1.323       .  A
N2123     Mn2501   2.210       .  S
N2124      C2128   1.357       .  A
N2125      N2126   1.319       .  A
N2125     Mn2137   2.206   1_565  S
N2126      C2127   1.357       .  A
C2127      C2341   1.541       .  S
C2128      C2165   1.541       .  S
N2129      N2135   1.320       .  A
N2129      N2130   1.321       .  A
N2130      C2138   1.359       .  A
N2131      N2132   1.326       .  A
N2131      N2133   1.319       .  A
N2132      C2139   1.356       .  A
N2133      N2134   1.325       .  A
N2133     Mn2159   2.245       .  S
N2134      C2139   1.361       .  A
N2135      N2136   1.328       .  A
N2136      C2138   1.357       .  A
C2138      C2235   1.540       .  S
C2139      C2340   1.543       .  S
N2140      N2141   1.331       .  A
N2140      N2146   1.317       .  A
N2140     Mn2148   2.250       .  S
N2141      C2149   1.364       .  A
N2142      N2144   1.314       .  A
N2142      N2143   1.320       .  A
N2143      C2150   1.356       .  A
N2144      N2145   1.320       .  A
N2145      C2150   1.357       .  A
N2146      N2147   1.318       .  A
N2147      C2149   1.354       .  A
Mn2148     N2476   2.224       .  S
C2149      C2164   1.547       .  S
C2150      C2270   1.535       .  S
N2151      N2152   1.320       .  A
N2151      N2157   1.317       .  A
N2151     Mn2512   2.224       .  S
N2152      C2162   1.358       .  A
N2153      N2154   1.319       .  A
N2153      N2155   1.318       .  A
N2153     Mn2160   2.223       .  S
N2154      C2163   1.358       .  A
N2155      N2156   1.329       .  A
N2156      C2163   1.360       .  A
N2157      N2158   1.328       .  A
N2158      C2162   1.358       .  A
Mn2159     N2504   2.250   1_554  S
Mn2159    Cl2161   2.584       .  S
C2162      C2305   1.540       .  S
C2163      C2200   1.548       .  S
C2164      C2460   1.513       .  S
C2164      C2465   1.531       .  S
C2164      C2468   1.532       .  S
C2165      C2449   1.525       .  S
C2165      C2452   1.529       .  S
C2165      C2456   1.526       .  S
N2166      C2171   1.349       .  A
N2166      C2523   1.353   1_554  A
N2166      H2198   1.041       .  S
N2167      C2174   1.349       .  A
N2167      C2175   1.351       .  A
N2168      C2173   1.352       .  A
N2168      C2525   1.350   1_554  A
N2168      H2199   1.041       .  S
N2169      C2176   1.351       .  A
N2169      C2177   1.352       .  A
C2170      N2519   1.350       .  A
C2170      C2178   1.390       .  A
C2170      C2186   1.412       .  A
C2171      C2187   1.410       .  A
C2171      C2179   1.384       .  A
C2172      N2521   1.355       .  A
C2172      C2180   1.388       .  A
C2172      C2189   1.417       .  A
C2173      C2188   1.412       .  A
C2173      C2181   1.386       .  A
C2174      C2186   1.412       .  A
C2174      C2182   1.387       .  A
C2175      C2189   1.412       .  A
C2175      C2183   1.385       .  A
C2176      C2184   1.386       .  A
C2176      C2187   1.412       .  A
C2177      C2185   1.386       .  A
C2177      C2188   1.413       .  A
C2178      C2532   1.368       .  A
C2178      H2190   1.078       .  S
C2179      C2531   1.370   1_554  A
C2179      H2191   1.083       .  S
C2180      C2534   1.375       .  A
C2180      H2192   1.083       .  S
C2181      C2533   1.376   1_554  A
C2181      H2193   1.083       .  S
C2182      C2183   1.380       .  A
C2182      H2194   1.080       .  S
C2183      H2195   1.082       .  S
C2184      C2185   1.381       .  A
C2184      H2196   1.082       .  S
C2185      H2197   1.082       .  S
C2186      C2461   1.480       .  S
C2187      C2457   1.491       .  S
C2188      C2441   1.496       .  S
C2189      C2444   1.499       .  S
C2200      C2428   1.539       .  S
C2200      C2433   1.519       .  S
C2200      C2436   1.542       .  S
N2201      C2205   1.352   1_545  A
N2201      H2233   1.039   1_545  S
N2202      C2209   1.347       .  A
N2202      C2210   1.348       .  A
N2203      C2207   1.350       .  A
N2203      H2234   1.040       .  S
N2204      C2211   1.351       .  A
N2204      C2212   1.355       .  A
C2205      C2213   1.384       .  A
C2205      C2221   1.413       .  A
C2206      C2222   1.422       .  A
C2206      C2214   1.389       .  A
C2207      C2215   1.383       .  A
C2207      C2224   1.411       .  A
C2208      C2223   1.414       .  A
C2208      C2216   1.391       .  A
C2209      C2221   1.404       .  A
C2209      C2217   1.387       .  A
C2210      C2224   1.401       .  A
C2210      C2218   1.385       .  A
C2211      C2219   1.389       .  A
C2211      C2222   1.419       .  A
C2212      C2220   1.385       .  A
C2212      C2223   1.417       .  A
C2213      H2225   1.080       .  S
C2214      H2226   1.083       .  S
C2215      H2227   1.083       .  S
C2216      H2228   1.076       .  S
C2217      C2218   1.374       .  A
C2217      H2229   1.082       .  S
C2218      H2230   1.082       .  S
C2219      C2220   1.382       .  A
C2219      H2231   1.082       .  S
C2220      H2232   1.082       .  S
C2221      C2464   1.487       .  S
C2222      C2437   1.502       .  S
C2223      C2424   1.497       .  S
C2224      C2448   1.486       .  S
C2235      C2417   1.514       .  S
C2235      C2420   1.520       .  S
C2235      C2425   1.531       .  S
N2236      C2241   1.349   1_556  A
N2236      C2593   1.352       .  A
N2236      H2268   1.040       .  S
N2237      C2244   1.349       .  A
N2237      C2245   1.348       .  A
N2238      C2243   1.353   1_556  A
N2238      C2595   1.351       .  A
N2238      H2269   1.040       .  S
N2239      C2246   1.350       .  A
N2239      C2247   1.351       .  A
C2240      N2589   1.353       .  A
C2240      C2248   1.385       .  A
C2240      C2256   1.413       .  A
C2241      C2257   1.410       .  A
C2241      C2249   1.387       .  A
C2242      N2591   1.351       .  A
C2242      C2250   1.387       .  A
C2242      C2259   1.411       .  A
C2243      C2258   1.413       .  A
C2243      C2251   1.385       .  A
C2244      C2256   1.406       .  A
C2244      C2252   1.386       .  A
C2245      C2259   1.408       .  A
C2245      C2253   1.387       .  A
C2246      C2254   1.387       .  A
C2246      C2257   1.410       .  A
C2247      C2255   1.386       .  A
C2247      C2258   1.409       .  A
C2248      C2602   1.374       .  A
C2248      H2260   1.080       .  S
C2249      C2601   1.376   1_554  A
C2249      H2261   1.083       .  S
C2250      C2604   1.374       .  A
C2250      H2262   1.083       .  S
C2251      C2603   1.374   1_554  A
C2251      H2263   1.082       .  S
C2252      C2253   1.377       .  A
C2252      H2264   1.082       .  S
C2253      H2265   1.082       .  S
C2254      C2255   1.375       .  A
C2254      H2266   1.082       .  S
C2255      H2267   1.082       .  S
C2256      C2432   1.492       .  S
C2257      C2421   1.485       .  S
C2258      C2408   1.493       .  S
C2259      C2413   1.483       .  S
C2270      C2400   1.536       .  S
C2270      C2405   1.535       .  S
C2270      C2445   1.529       .  S
N2271      C2275   1.354   1_455  A
N2271      H2303   1.040       .  S
N2272      C2279   1.355       .  A
N2272      C2280   1.356       .  A
N2273      C2277   1.353   1_455  A
N2273      H2304   1.042       .  S
N2274      C2281   1.350       .  A
N2274      C2282   1.350       .  A
C2275      C2283   1.392       .  A
C2275      C2291   1.419       .  A
C2276      C2292   1.422       .  A
C2276      C2284   1.386       .  A
C2277      C2285   1.393       .  A
C2277      C2294   1.418       .  A
C2278      C2293   1.410       .  A
C2278      C2286   1.384       .  A
C2279      C2291   1.424       .  A
C2279      C2287   1.388       .  A
C2280      C2294   1.424       .  A
C2280      C2288   1.387       .  A
C2281      C2289   1.388       .  A
C2281      C2292   1.411       .  A
C2282      C2290   1.386       .  A
C2282      C2293   1.409       .  A
C2283      H2295   1.076       .  S
C2284      H2296   1.083       .  S
C2285      H2297   1.076       .  S
C2286      H2298   1.082       .  S
C2287      C2288   1.385       .  A
C2287      H2299   1.082       .  S
C2288      H2300   1.082       .  S
C2289      C2290   1.381       .  A
C2289      H2301   1.082       .  S
C2290      H2302   1.082       .  S
C2291      C2469   1.498       .  S
C2292      C2404   1.506       .  S
C2293      C2397   1.494       .  S
C2294      C2429   1.503       .  S
C2305      C2392   1.532       .  S
C2305      C2396   1.521       .  S
C2305      C2412   1.521       .  S
N2306      C2311   1.351       .  A
N2306      H2338   1.042       .  S
N2307      C2314   1.355       .  A
N2307      C2315   1.354       .  A
N2308      C2313   1.351       .  A
N2308      H2339   1.041       .  S
N2309      C2316   1.351       .  A
N2309      C2317   1.351       .  A
C2310      C2318   1.393       .  A
C2310      C2326   1.417       .  A
C2311      C2327   1.416       .  A
C2311      C2319   1.386       .  A
C2312      C2320   1.394       .  A
C2312      C2329   1.423       .  A
C2313      C2328   1.412       .  A
C2313      C2321   1.385       .  A
C2314      C2326   1.422       .  A
C2314      C2322   1.387       .  A
C2315      C2329   1.421       .  A
C2315      C2323   1.387       .  A
C2316      C2324   1.386       .  A
C2316      C2327   1.411       .  A
C2317      C2325   1.387       .  A
C2317      C2328   1.413       .  A
C2318      H2330   1.075       .  S
C2319      H2331   1.083       .  S
C2320      H2332   1.076       .  S
C2321      H2333   1.082       .  S
C2322      C2323   1.382       .  A
C2322      H2334   1.082       .  S
C2323      H2335   1.082       .  S
C2324      C2325   1.381       .  A
C2324      H2336   1.082       .  S
C2325      H2337   1.082       .  S
C2326      C2389   1.499       .  S
C2327      C2384   1.500       .  S
C2328      C2401   1.498       .  S
C2329      C2393   1.500       .  S
C2340      C2381   1.523       .  S
C2340      C2388   1.533       .  S
C2340      C2409   1.522       .  S
C2341      C2376   1.524       .  S
C2341      C2385   1.534       .  S
C2341      C2440   1.532       .  S
N2342      C2346   1.353       .  A
N2342      H2374   1.040       .  S
N2343      C2350   1.350       .  A
N2343      C2351   1.348       .  A
N2344      C2348   1.349       .  A
N2344      H2375   1.041       .  S
N2345      C2352   1.347       .  A
N2345      C2353   1.350       .  A
C2346      C2354   1.385       .  A
C2346      C2362   1.414       .  A
C2347      C2363   1.420       .  A
C2347      C2355   1.389       .  A
C2348      C2356   1.385       .  A
C2348      C2365   1.412       .  A
C2349      C2364   1.411       .  A
C2349      C2357   1.389       .  A
C2350      C2362   1.409       .  A
C2350      C2358   1.386       .  A
C2351      C2365   1.407       .  A
C2351      C2359   1.387       .  A
C2352      C2360   1.387       .  A
C2352      C2363   1.409       .  A
C2353      C2361   1.386       .  A
C2353      C2364   1.408       .  A
C2354      H2366   1.083       .  S
C2355      H2367   1.083       .  S
C2356      H2368   1.081       .  S
C2357      H2369   1.079       .  S
C2358      C2359   1.379       .  A
C2358      H2370   1.082       .  S
C2359      H2371   1.082       .  S
C2360      C2361   1.380       .  A
C2360      H2372   1.083       .  S
C2361      H2373   1.083       .  S
C2362      C2453   1.496       .  S
C2363      C2377   1.491       .  S
C2364      C2380   1.485       .  S
C2365      C2416   1.487       .  S
C2376      C2377   1.344       .  D
C2376      H2378   1.090       .  S
C2377      H2379   1.081       .  S
C2380      C2381   1.338       .  D
C2380      H2382   1.085       .  S
C2381      H2383   1.088       .  S
C2384      C2385   1.352       .  D
C2384      H2386   1.080       .  S
C2385      H2387   1.083       .  S
C2388      C2389   1.351       .  D
C2388      H2390   1.084       .  S
C2389      H2391   1.086       .  S
C2392      C2393   1.344       .  D
C2392      H2394   1.086       .  S
C2393      H2395   1.086       .  S
C2396      C2397   1.351       .  D
C2396      H2398   1.088       .  S
C2397      H2399   1.082       .  S
C2400      C2401   1.353       .  D
C2400      H2402   1.085       .  S
C2401      H2403   1.081       .  S
C2404      C2405   1.348       .  D
C2404      H2406   1.082       .  S
C2405      H2407   1.089       .  S
C2408      C2409   1.348       .  D
C2408      H2410   1.086       .  S
C2409      H2411   1.088       .  S
C2412      C2413   1.348       .  D
C2412      H2414   1.089       .  S
C2413      H2415   1.083       .  S
C2416      C2417   1.348       .  D
C2416      H2418   1.084       .  S
C2417      H2419   1.089       .  S
C2420      C2421   1.350       .  D
C2420      H2422   1.089       .  S
C2421      H2423   1.083       .  S
C2424      C2425   1.345       .  D
C2424      H2426   1.085       .  S
C2425      H2427   1.086       .  S
C2428      C2429   1.351       .  D
C2428      H2430   1.083       .  S
C2429      H2431   1.084       .  S
C2432      C2433   1.347       .  D
C2432      H2434   1.085       .  S
C2433      H2435   1.088       .  S
C2436      C2437   1.354       .  D
C2436      H2438   1.084       .  S
C2437      H2439   1.084       .  S
C2440      C2441   1.353       .  D
C2440      H2442   1.089       .  S
C2441      H2443   1.079       .  S
C2444      C2445   1.349       .  D
C2444      H2446   1.082       .  S
C2445      H2447   1.089       .  S
C2448      C2449   1.347       .  D
C2448      H2450   1.079       .  S
C2449      H2451   1.085       .  S
C2452      C2453   1.350       .  D
C2452      H2454   1.089       .  S
C2453      H2455   1.081       .  S
C2456      C2457   1.353       .  D
C2456      H2458   1.089       .  S
C2457      H2459   1.079       .  S
C2460      C2461   1.339       .  D
C2460      H2462   1.088       .  S
C2461      H2463   1.086       .  S
C2464      C2465   1.345       .  D
C2464      H2466   1.086       .  S
C2465      H2467   1.085       .  S
C2468      C2469   1.352       .  D
C2468      H2470   1.086       .  S
C2469      H2471   1.086       .  S
N2472      N2473   1.322       .  A
N2472      N2478   1.316       .  A
N2473      C2480   1.355       .  A
N2474      N2476   1.320       .  A
N2474      N2475   1.320       .  A
N2475      C2481   1.355       .  A
N2476      N2477   1.323       .  A
N2477      C2481   1.358       .  A
N2478      N2479   1.321       .  A
N2478     Mn2490   2.226   1_565  S
N2479      C2480   1.360       .  A
C2480      C2694   1.544       .  S
C2481      C2518   1.541       .  S
N2482      N2488   1.318       .  A
N2482      N2483   1.322       .  A
N2483      C2491   1.361       .  A
N2484      N2485   1.330       .  A
N2484      N2486   1.318       .  A
N2485      C2492   1.360       .  A
N2486      N2487   1.321       .  A
N2486     Mn2512   2.229       .  S
N2487      C2492   1.358       .  A
N2488      N2489   1.329       .  A
N2489      C2491   1.357       .  A
C2491      C2588   1.542       .  S
C2492      C2693   1.544       .  S
N2493      N2494   1.325       .  A
N2493      N2499   1.318       .  A
N2493     Mn2501   2.224   1_556  S
N2494      C2502   1.357       .  A
N2495      N2497   1.315       .  A
N2495      N2496   1.319       .  A
N2496      C2503   1.358       .  A
N2497      N2498   1.322       .  A
N2498      C2503   1.357       .  A
N2499      N2500   1.324       .  A
N2500      C2502   1.359       .  A
C2502      C2517   1.539       .  S
C2503      C2623   1.544       .  S
N2504      N2505   1.329       .  A
N2504      N2510   1.318       .  A
N2505      C2515   1.365       .  A
N2506      N2507   1.319       .  A
N2506      N2508   1.319       .  A
N2506     Mn2513   2.208       .  S
N2507      C2516   1.354       .  A
N2508      N2509   1.329       .  A
N2509      C2516   1.363       .  A
N2510      N2511   1.318       .  A
N2511      C2515   1.351       .  A
Mn2512    Cl2514   2.555       .  S
C2515      C2658   1.542       .  S
C2516      C2553   1.546       .  S
C2517      C2813   1.531       .  S
C2517      C2818   1.526       .  S
C2517      C2821   1.525       .  S
C2518      C2802   1.526       .  S
C2518      C2805   1.527       .  S
C2518      C2809   1.531       .  S
N2519      C2524   1.352       .  A
N2519      H2551   1.040       .  S
N2520      C2527   1.353       .  A
N2520      C2528   1.351       .  A
N2521      C2526   1.349       .  A
N2521      H2552   1.041       .  S
N2522      C2529   1.354       .  A
N2522      C2530   1.351       .  A
C2523      C2531   1.390       .  A
C2523      C2539   1.414       .  A
C2524      C2540   1.413       .  A
C2524      C2532   1.385       .  A
C2525      C2533   1.389       .  A
C2525      C2542   1.414       .  A
C2526      C2541   1.411       .  A
C2526      C2534   1.386       .  A
C2527      C2539   1.415       .  A
C2527      C2535   1.386       .  A
C2528      C2542   1.414       .  A
C2528      C2536   1.386       .  A
C2529      C2537   1.385       .  A
C2529      C2540   1.414       .  A
C2530      C2538   1.388       .  A
C2530      C2541   1.416       .  A
C2531      H2543   1.077       .  S
C2532      H2544   1.083       .  S
C2533      H2545   1.083       .  S
C2534      H2546   1.083       .  S
C2535      C2536   1.381       .  A
C2535      H2547   1.082       .  S
C2536      H2548   1.083       .  S
C2537      C2538   1.383       .  A
C2537      H2549   1.082       .  S
C2538      H2550   1.082       .  S
C2539      C2814   1.494       .  S
C2540      C2810   1.504       .  S
C2541      C2794   1.490       .  S
C2542      C2797   1.490       .  S
C2553      C2781   1.522       .  S
C2553      C2786   1.515       .  S
C2553      C2789   1.543       .  S
N2554      C2558   1.352       .  A
N2554      H2586   1.040       .  S
N2555      C2562   1.347       .  A
N2555      C2563   1.348       .  A
N2556      C2560   1.351       .  A
N2556      H2587   1.040       .  S
N2557      C2564   1.355       .  A
N2557      C2565   1.356       .  A
C2558      C2566   1.384       .  A
C2558      C2574   1.409       .  A
C2559      C2575   1.417       .  A
C2559      C2567   1.388       .  A
C2560      C2568   1.384       .  A
C2560      C2577   1.413       .  A
C2561      C2576   1.414       .  A
C2561      C2569   1.392       .  A
C2562      C2574   1.406       .  A
C2562      C2570   1.386       .  A
C2563      C2577   1.405       .  A
C2563      C2571   1.385       .  A
C2564      C2572   1.388       .  A
C2564      C2575   1.424       .  A
C2565      C2573   1.386       .  A
C2565      C2576   1.422       .  A
C2566      H2578   1.082       .  S
C2567      H2579   1.083       .  S
C2568      H2580   1.083       .  S
C2569      H2581   1.077       .  S
C2570      C2571   1.379       .  A
C2570      H2582   1.083       .  S
C2571      H2583   1.082       .  S
C2572      C2573   1.384       .  A
C2572      H2584   1.082       .  S
C2573      H2585   1.083       .  S
C2574      C2817   1.479       .  S
C2575      C2790   1.504       .  S
C2576      C2777   1.500       .  S
C2577      C2801   1.488       .  S
C2588      C2770   1.523       .  S
C2588      C2773   1.532       .  S
C2588      C2778   1.535       .  S
N2589      C2594   1.351       .  A
N2589      H2621   1.041       .  S
N2590      C2597   1.347       .  A
N2590      C2598   1.346       .  A
N2591      C2596   1.351       .  A
N2591      H2622   1.041       .  S
N2592      C2599   1.355       .  A
N2592      C2600   1.356       .  A
C2593      C2601   1.385       .  A
C2593      C2609   1.412       .  A
C2594      C2610   1.412       .  A
C2594      C2602   1.386       .  A
C2595      C2603   1.384       .  A
C2595      C2612   1.414       .  A
C2596      C2611   1.411       .  A
C2596      C2604   1.386       .  A
C2597      C2609   1.401       .  A
C2597      C2605   1.386       .  A
C2598      C2612   1.400       .  A
C2598      C2606   1.387       .  A
C2599      C2607   1.387       .  A
C2599      C2610   1.421       .  A
C2600      C2608   1.386       .  A
C2600      C2611   1.422       .  A
C2601      H2613   1.080       .  S
C2602      H2614   1.083       .  S
C2603      H2615   1.075       .  S
C2604      H2616   1.083       .  S
C2605      C2606   1.371       .  A
C2605      H2617   1.082       .  S
C2606      H2618   1.082       .  S
C2607      C2608   1.383       .  A
C2607      H2619   1.082       .  S
C2608      H2620   1.082       .  S
C2609      C2785   1.482       .  S
C2610      C2774   1.502       .  S
C2611      C2761   1.505       .  S
C2612      C2766   1.481       .  S
C2623      C2753   1.533       .  S
C2623      C2758   1.525       .  S
C2623      C2798   1.525       .  S
N2624      C2628   1.353   1_455  A
N2624      H2656   1.041       .  S
N2625      C2632   1.347       .  A
N2625      C2633   1.350       .  A
N2626      C2630   1.348   1_455  A
N2626      H2657   1.041       .  S
N2627      C2634   1.347       .  A
N2627      C2635   1.348       .  A
C2628      C2636   1.387       .  A
C2628      C2644   1.416       .  A
C2629      C2645   1.417       .  A
C2629      C2637   1.385       .  A
C2630      C2638   1.385       .  A
C2630      C2647   1.404       .  A
C2631      C2646   1.402       .  A
C2631      C2639   1.386       .  A
C2632      C2644   1.412       .  A
C2632      C2640   1.389       .  A
C2633      C2647   1.407       .  A
C2633      C2641   1.384       .  A
C2634      C2642   1.387       .  A
C2634      C2645   1.409       .  A
C2635      C2643   1.386       .  A
C2635      C2646   1.407       .  A
C2636      H2648   1.083       .  S
C2637      H2649   1.083       .  S
C2638      H2650   1.077       .  S
C2639      H2651   1.077       .  S
C2640      C2641   1.381       .  A
C2640      H2652   1.082       .  S
C2641      H2653   1.083       .  S
C2642      C2643   1.386       .  A
C2642      H2654   1.082       .  S
C2643      H2655   1.082       .  S
C2644      C2822   1.489       .  S
C2645      C2757   1.497       .  S
C2646      C2750   1.479       .  S
C2647      C2782   1.482       .  S
C2658      C2745   1.541       .  S
C2658      C2749   1.522       .  S
C2658      C2765   1.511       .  S
N2659      C2664   1.350       .  A
N2659      H2691   1.038       .  S
N2660      C2667   1.354       .  A
N2660      C2668   1.353       .  A
N2661      C2666   1.354       .  A
N2661      H2692   1.039       .  S
N2662      C2669   1.346       .  A
N2662      C2670   1.349       .  A
C2663      C2671   1.390       .  A
C2663      C2679   1.418       .  A
C2664      C2680   1.413       .  A
C2664      C2672   1.382       .  A
C2665      C2673   1.388       .  A
C2665      C2682   1.411       .  A
C2666      C2681   1.415       .  A
C2666      C2674   1.381       .  A
C2667      C2679   1.419       .  A
C2667      C2675   1.386       .  A
C2668      C2682   1.420       .  A
C2668      C2676   1.387       .  A
C2669      C2677   1.387       .  A
C2669      C2680   1.405       .  A
C2670      C2678   1.385       .  A
C2670      C2681   1.405       .  A
C2671      H2683   1.078       .  S
C2672      H2684   1.083       .  S
C2673      H2685   1.083       .  S
C2674      H2686   1.083       .  S
C2675      C2676   1.384       .  A
C2675      H2687   1.082       .  S
C2676      H2688   1.082       .  S
C2677      C2678   1.378       .  A
C2677      H2689   1.082       .  S
C2678      H2690   1.082       .  S
C2679      C2742   1.499       .  S
C2680      C2737   1.487       .  S
C2681      C2754   1.501       .  S
C2682      C2746   1.498       .  S
C2693      C2734   1.530       .  S
C2693      C2741   1.533       .  S
C2693      C2762   1.538       .  S
C2694      C2729   1.526       .  S
C2694      C2738   1.526       .  S
C2694      C2793   1.530       .  S
N2695      C2699   1.355   1_455  A
N2695      H2727   1.041       .  S
N2696      C2703   1.350       .  A
N2696      C2704   1.349       .  A
N2697      C2701   1.354   1_455  A
N2697      H2728   1.040       .  S
N2698      C2705   1.350       .  A
N2698      C2706   1.351       .  A
C2699      C2707   1.386       .  A
C2699      C2715   1.418       .  A
C2700      C2716   1.414       .  A
C2700      C2708   1.387       .  A
C2701      C2709   1.386       .  A
C2701      C2718   1.419       .  A
C2702      C2717   1.420       .  A
C2702      C2710   1.386       .  A
C2703      C2715   1.406       .  A
C2703      C2711   1.385       .  A
C2704      C2718   1.407       .  A
C2704      C2712   1.387       .  A
C2705      C2713   1.386       .  A
C2705      C2716   1.409       .  A
C2706      C2714   1.386       .  A
C2706      C2717   1.410       .  A
C2707      H2719   1.083       .  S
C2708      H2720   1.083       .  S
C2709      H2721   1.081       .  S
C2710      H2722   1.082       .  S
C2711      C2712   1.374       .  A
C2711      H2723   1.082       .  S
C2712      H2724   1.082       .  S
C2713      C2714   1.376       .  A
C2713      H2725   1.082       .  S
C2714      H2726   1.082       .  S
C2715      C2806   1.493       .  S
C2716      C2730   1.489       .  S
C2717      C2733   1.500       .  S
C2718      C2769   1.489       .  S
C2729      C2730   1.348       .  D
C2729      H2731   1.089       .  S
C2730      H2732   1.079       .  S
C2733      C2734   1.346       .  D
C2733      H2735   1.084       .  S
C2734      H2736   1.089       .  S
C2737      C2738   1.350       .  D
C2737      H2739   1.077       .  S
C2738      H2740   1.084       .  S
C2741      C2742   1.345       .  D
C2741      H2743   1.087       .  S
C2742      H2744   1.085       .  S
C2745      C2746   1.360       .  D
C2745      H2747   1.085       .  S
C2746      H2748   1.085       .  S
C2749      C2750   1.338       .  D
C2749      H2751   1.084       .  S
C2750      H2752   1.081       .  S
C2753      C2754   1.351       .  D
C2753      H2755   1.083       .  S
C2754      H2756   1.081       .  S
C2757      C2758   1.350       .  D
C2757      H2759   1.082       .  S
C2758      H2760   1.089       .  S
C2761      C2762   1.361       .  D
C2761      H2763   1.084       .  S
C2762      H2764   1.088       .  S
C2765      C2766   1.340       .  D
C2765      H2767   1.089       .  S
C2766      H2768   1.086       .  S
C2769      C2770   1.343       .  D
C2769      H2771   1.085       .  S
C2770      H2772   1.090       .  S
C2773      C2774   1.359       .  D
C2773      H2775   1.088       .  S
C2774      H2776   1.085       .  S
C2777      C2778   1.345       .  D
C2777      H2779   1.084       .  S
C2778      H2780   1.086       .  S
C2781      C2782   1.340       .  D
C2781      H2783   1.086       .  S
C2782      H2784   1.084       .  S
C2785      C2786   1.343       .  D
C2785      H2787   1.086       .  S
C2786      H2788   1.089       .  S
C2789      C2790   1.360       .  D
C2789      H2791   1.084       .  S
C2790      H2792   1.085       .  S
C2793      C2794   1.354       .  D
C2793      H2795   1.089       .  S
C2794      H2796   1.077       .  S
C2797      C2798   1.351       .  D
C2797      H2799   1.079       .  S
C2798      H2800   1.089       .  S
C2801      C2802   1.348       .  D
C2801      H2803   1.081       .  S
C2802      H2804   1.086       .  S
C2805      C2806   1.345       .  D
C2805      H2807   1.089       .  S
C2806      H2808   1.083       .  S
C2809      C2810   1.355       .  D
C2809      H2811   1.090       .  S
C2810      H2812   1.083       .  S
C2813      C2814   1.345       .  D
C2813      H2815   1.086       .  S
C2814      H2816   1.086       .  S
C2817      C2818   1.346       .  D
C2817      H2819   1.083       .  S
C2818      H2820   1.089       .  S
C2821      C2822   1.350       .  D
C2821      H2823   1.089       .  S
C2822      H2824   1.086       .  S
