geometry optimzed in LAMMPS
_audit_creation_date              2020-12-01 
_audit_creation_method            'lammps2cif' 
_symmetry_space_group_name_H-M    'P1' 
_symmetry_Int_Tables_number       1 
_symmetry_cell_setting            triclinic 
loop_ 
_symmetry_equiv_pos_as_xyz 
  x,y,z 
_cell_length_a                    47.44814684 
_cell_length_b                    48.01706116637748 
_cell_length_c                    24.066693518415413 
_cell_angle_alpha                 89.69414643218225 
_cell_angle_beta                  90.27519949842873 
_cell_angle_gamma                 89.65811347486363 
loop_ 
_atom_site_label 
_atom_site_type_symbol 
_atom_site_fract_x 
_atom_site_fract_y 
_atom_site_fract_z 
_atom_site_charge 
C1          C  0.09943342  0.11345522  0.21425449     0.30700
C2          C  0.13581203  0.14338536  0.27706284     0.30700
C3          C  0.12895731  0.11868901  0.18759727    -0.05500
C4          C  0.08914203  0.14286465  0.23081242    -0.06300
C5          C  0.10782426  0.10015662  0.27160277    -0.06200
C6          C  0.14700281  0.13414335  0.22032198    -0.05500
C7          C  0.10734238  0.15819496  0.26355701    -0.06300
C8          C  0.12555759  0.11610789  0.30399844    -0.06200
C9          C  0.17191382  0.13792976  0.19169582    -0.31500
N10         N  0.17016196  0.12514254  0.14165584     0.15000
C11         C  0.14419620  0.11278265  0.13921057    -0.31600
H12         H  0.13694884  0.10048590  0.10454087     0.16900
C13         C  0.09272492  0.18242829  0.27790056    -0.30500
N14         N  0.06692806  0.18280689  0.25239142     0.13700
C15         C  0.06458778  0.15839765  0.22410606    -0.30500
C16         C  0.12864967  0.10279313  0.35503154    -0.30800
N17         N  0.11477192  0.07823380  0.35387983     0.14200
H18         H  0.14030998  0.11023835  0.39064665     0.16800
C19         C  0.10242733  0.07615738  0.30278743    -0.30800
H20         H  0.09049052  0.05824473  0.28951118     0.16800
H21         H  0.04622587  0.15221746  0.20043858     0.16800
H22         H  0.18980604  0.14990743  0.20581745     0.16900
H23         H  0.10001113  0.19838564  0.30595245     0.16800
N24         N  0.49384641  0.21306400  0.24932801    -0.35900
N25         N  0.03759747  0.25593855  0.25910753    -0.56500
N26         N  0.49348476  0.29916274  0.25300944    -0.35900
N27         N  0.44975075  0.25619122  0.25335924    -0.56500
C28         C  0.01690169  0.19768055  0.26406886     0.27700
C29         C  0.47059839  0.19776688  0.26151906     0.27700
C30         C  0.01640642  0.31420394  0.26821391     0.27700
C31         C  0.47021236  0.31435410  0.26619433     0.27700
C32         C  0.05366598  0.23329438  0.24652088     0.36300
C33         C  0.05345460  0.27882860  0.24825319     0.36300
C34         C  0.43414690  0.23364456  0.23890152     0.36300
C35         C  0.43396545  0.27924494  0.24146598     0.36300
C36         C  0.00818741  0.17258087  0.28656852    -0.21200
C37         C  0.47910838  0.17269631  0.28530957    -0.21200
C38         C  0.00758916  0.33898161  0.29188900    -0.21200
C39         C  0.47853180  0.33904337  0.29079777    -0.21200
C40         C  0.07962065  0.24191501  0.22710289    -0.22300
C41         C  0.07956766  0.27062008  0.22846210    -0.22200
C42         C  0.40857044  0.24256639  0.21685445    -0.22300
C43         C  0.40840405  0.27128271  0.21877056    -0.22200
C44         C  0.04557731  0.20497733  0.25456885    -0.17600
C45         C  0.44206818  0.20521624  0.24873694    -0.17600
C46         C  0.44177823  0.30726298  0.25363419    -0.17600
C47         C  0.04503744  0.30696375  0.25807927    -0.17600
H48         H  0.02140494  0.15589590  0.30253127     0.15300
H49         H  0.46581911  0.15611807  0.30049562     0.15300
H50         H  0.02072173  0.35535960  0.30838064     0.15300
H51         H  0.46511791  0.35548744  0.30646831     0.15300
H52         H  0.09664668  0.22892139  0.21232664     0.13600
H53         H  0.09668650  0.28387746  0.21539125     0.13600
H54         H  0.39173965  0.22980805  0.20068544     0.13600
H55         H  0.39144351  0.28474079  0.20457277     0.13600
H56         H  0.49406134  0.23158474  0.22671271     0.26900
H57         H  0.49378868  0.28103650  0.22955323     0.26900
C58         C  0.35180777  0.36520121  0.29425375     0.30700
C59         C  0.38253684  0.39814128  0.22648783     0.30700
C60         C  0.33868125  0.37130188  0.23585986    -0.05500
C61         C  0.35885386  0.39441388  0.31761899    -0.06300
C62         C  0.38089222  0.35300226  0.27768484    -0.06200
C63         C  0.35438593  0.38837422  0.20250568    -0.05500
C64         C  0.37499657  0.41107919  0.28347088    -0.06300
C65         C  0.39711649  0.37010346  0.24386140    -0.06200
C66         C  0.34079231  0.39095543  0.15159919    -0.31500
N67         N  0.31685266  0.37571616  0.15243793     0.15000
C68         C  0.31564584  0.36312684  0.20343653    -0.31600
H69         H  0.29912644  0.34898904  0.21579587     0.16900
C70         C  0.38097473  0.43518646  0.31329285    -0.30500
N71         N  0.36785021  0.43431758  0.36361136     0.13700
C72         C  0.35441818  0.40921844  0.36658575    -0.30500
C73         C  0.42166931  0.35511917  0.23222529    -0.30800
N74         N  0.42014143  0.32913753  0.25536410     0.14200
H75         H  0.43939278  0.36237369  0.20817502     0.16800
C76         C  0.39495492  0.32759321  0.28197076    -0.30800
H77         H  0.38714980  0.30894096  0.30168192     0.16800
H78         H  0.34244528  0.40205211  0.40199512     0.16800
H79         H  0.34771997  0.40336210  0.11660548     0.16900
H80         H  0.39446849  0.45195932  0.29979696     0.16800
N81         N  0.11253181  0.00673084  0.41410614    -0.35900
N82         N  0.11576671  0.04933365  0.49946885    -0.56500
N83         N  0.11367640  0.00578618  0.58571075    -0.35900
N84         N  0.11539102  0.46323605  0.50011792    -0.56500
C85         C  0.12058491  0.02933038  0.38442975     0.27700
C86         C  0.12075243  0.48394298  0.38528970     0.27700
C87         C  0.12075543  0.02843636  0.61618681     0.27700
C88         C  0.12046692  0.48268266  0.61596039     0.27700
C89         C  0.10973323  0.06538420  0.45418198     0.36300
C90         C  0.11033375  0.06504938  0.54495865     0.36300
C91         C  0.10798850  0.44837609  0.45472348     0.36300
C92         C  0.10906240  0.44728262  0.54491822     0.36300
C93         C  0.13440059  0.02080047  0.33679480    -0.21200
C94         C  0.13475926  0.49208968  0.33774246    -0.21200
C95         C  0.13230765  0.01958366  0.66635766    -0.21200
C96         C  0.13208833  0.49082067  0.66622922    -0.21200
C97         C  0.10017102  0.09127824  0.47104361    -0.22300
C98         C  0.10054631  0.09107377  0.52833041    -0.22200
C99         C  0.09630312  0.42331219  0.47072507    -0.22300
C100        C  0.09733254  0.42240296  0.52796713    -0.22200
C101        C  0.11455372  0.05736118  0.39808141    -0.17600
C102        C  0.11432227  0.45610397  0.39934890    -0.17600
C103        C  0.11499120  0.45454137  0.60066558    -0.17600
C104        C  0.11582389  0.05682823  0.60107182    -0.17600
H105        H  0.14365577  0.03388048  0.30508018     0.15300
H106        H  0.14464250  0.47864873  0.30758332     0.15300
H107        H  0.14024874  0.03243725  0.69966281     0.15300
H108        H  0.13974189  0.47747228  0.69945156     0.15300
H109        H  0.09354131  0.10854621  0.44494705     0.13600
H110        H  0.09418157  0.10817741  0.55462018     0.13600
H111        H  0.08796146  0.40737946  0.44375677     0.13600
H112        H  0.09006644  0.40551552  0.55407505     0.13600
H113        H  0.09945525  0.00683237  0.44906130     0.26900
H114        H  0.10213538  0.00614116  0.54849293     0.26900
N115        N  0.37146011  0.00748863  0.41932553    -0.35900
N116        N  0.36754711  0.46492674  0.50693161    -0.56500
N117        N  0.37031253  0.00892487  0.59176731    -0.35900
N118        N  0.36834203  0.05163001  0.50396000    -0.56500
C119        C  0.36279214  0.48446583  0.39104509     0.27700
C120        C  0.36340419  0.03031279  0.38913285     0.27700
C121        C  0.36344289  0.48622490  0.62308829     0.27700
C122        C  0.36389893  0.03212447  0.62178699     0.27700
C123        C  0.37429535  0.44892020  0.46246536     0.36300
C124        C  0.37431073  0.44984083  0.55300364     0.36300
C125        C  0.37409776  0.06719440  0.45803370     0.36300
C126        C  0.37339117  0.06801104  0.54882055     0.36300
C127        C  0.34848295  0.49283213  0.34360085    -0.21200
C128        C  0.34893651  0.02165701  0.34232666    -0.21200
C129        C  0.35244582  0.49520284  0.67311643    -0.21200
C130        C  0.35287786  0.02396896  0.67250003    -0.21200
C131        C  0.38582169  0.42388610  0.48039386    -0.22300
C132        C  0.38606073  0.42461191  0.53765566    -0.22200
C133        C  0.38304203  0.09338764  0.47394607    -0.22300
C134        C  0.38251763  0.09392966  0.53115242    -0.22200
C135        C  0.36850414  0.45614795  0.40619260    -0.17600
C136        C  0.36945302  0.05869606  0.40204947    -0.17600
C137        C  0.36863728  0.06042343  0.60542402    -0.17600
C138        C  0.36818729  0.45768835  0.60859567    -0.17600
H139        H  0.33796999  0.47948813  0.31410947     0.15300
H140        H  0.33879519  0.03484913  0.31155981     0.15300
H141        H  0.34455961  0.48237037  0.70644196     0.15300
H142        H  0.34553704  0.03736072  0.70549807     0.15300
H143        H  0.39353730  0.40700773  0.45494364     0.13600
H144        H  0.39427384  0.40855415  0.56504638     0.13600
H145        H  0.38934928  0.11042565  0.44727648     0.13600
H146        H  0.38841514  0.11144100  0.55671031     0.13600
H147        H  0.38432321  0.00758315  0.45410128     0.26900
H148        H  0.38100022  0.00858168  0.55472577     0.26900
C149        C  0.10324827  0.40053770  0.78577025     0.30700
C150        C  0.13644364  0.36773430  0.72183294     0.30700
C151        C  0.13238903  0.39309196  0.81093654    -0.05500
C152        C  0.09049955  0.37177105  0.77137172    -0.06300
C153        C  0.11007096  0.41201839  0.72667780    -0.06200
C154        C  0.14915524  0.37592357  0.77889517    -0.05500
C155        C  0.10777182  0.35464820  0.73984239    -0.06300
C156        C  0.12748875  0.39554262  0.69490722    -0.06200
C157        C  0.17249128  0.36883607  0.81144181    -0.31500
N158        N  0.17092571  0.38204327  0.86147618     0.15000
C159        C  0.14643496  0.39706797  0.86120867    -0.31600
H160        H  0.13919198  0.40976533  0.89534974     0.16900
C161        C  0.09339661  0.32962150  0.73349625    -0.30500
N162        N  0.06740432  0.33150181  0.75675314     0.13700
C163        C  0.06542679  0.35741960  0.77956924    -0.30500
C164        C  0.13065644  0.40874412  0.64364628    -0.30800
N165        N  0.11546007  0.43290542  0.64342826     0.14200
H166        H  0.14320976  0.40136598  0.60924012     0.16800
C167        C  0.10180453  0.43426080  0.69272316    -0.30800
H168        H  0.08659347  0.45037710  0.70223672     0.16800
H169        H  0.04682343  0.36550198  0.79966063     0.16800
H170        H  0.18917215  0.35454453  0.80006107     0.16900
H171        H  0.10108658  0.31098803  0.71360706     0.16800
N172        N  0.03874555  0.25860290  0.74724319    -0.35900
N173        N  0.49440710  0.30133313  0.75491837    -0.56500
N174        N  0.45151667  0.25781419  0.74381142    -0.35900
N175        N  0.49569490  0.21500184  0.74659199    -0.56500
C176        C  0.05376853  0.28127956  0.76333621     0.27700
C177        C  0.05455865  0.23548464  0.75873048     0.27700
C178        C  0.43591857  0.28009898  0.76029522     0.27700
C179        C  0.43688812  0.23453514  0.75738566     0.27700
C180        C  0.01714965  0.31752733  0.74420162     0.36300
C181        C  0.47117966  0.31690710  0.74259359     0.36300
C182        C  0.01891505  0.19962979  0.73443163     0.36300
C183        C  0.47301194  0.19919235  0.73342660     0.36300
C184        C  0.07925864  0.27227757  0.78579683    -0.21200
C185        C  0.07982964  0.24355424  0.78247994    -0.21200
C186        C  0.41134089  0.27088310  0.78487623    -0.21200
C187        C  0.41221948  0.24218365  0.78376835    -0.21200
C188        C  0.00821452  0.34323278  0.72410302    -0.22300
C189        C  0.47920914  0.34288105  0.72337559    -0.22200
C190        C  0.01087750  0.17418535  0.71273477    -0.22300
C191        C  0.48186226  0.17389339  0.71218569    -0.22200
C192        C  0.04573333  0.30984255  0.75512313    -0.17600
C193        C  0.04718615  0.20738340  0.74647865    -0.17600
C194        C  0.44455897  0.20664490  0.74426215    -0.17600
C195        C  0.44286274  0.30853025  0.75177934    -0.17600
H196        H  0.09581727  0.28501236  0.80310804     0.15300
H197        H  0.09686640  0.23013536  0.79647996     0.15300
H198        H  0.39482078  0.28349461  0.80297096     0.15300
H199        H  0.39697560  0.22840107  0.80211613     0.15300
H200        H  0.02112898  0.36044783  0.71060869     0.13600
H201        H  0.46563943  0.35978435  0.70968878     0.13600
H202        H  0.02447210  0.15749670  0.69874468     0.13600
H203        H  0.46883163  0.15694904  0.69782700     0.13600
H204        H  0.02003134  0.25902755  0.72469939     0.26900
H205        H  0.46967315  0.25856531  0.71983662     0.26900
C206        C  0.35219960  0.15173236  0.71893741     0.30700
C207        C  0.38505296  0.11880088  0.78372280     0.30700
C208        C  0.35989572  0.12276740  0.69297177    -0.05500
C209        C  0.38124261  0.16380597  0.73462139    -0.06300
C210        C  0.33916592  0.14291547  0.77474953    -0.06200
C211        C  0.37761015  0.10637607  0.72580188    -0.05500
C212        C  0.39829399  0.14690995  0.76726153    -0.06300
C213        C  0.35616482  0.12661832  0.80781568    -0.06200
C214        C  0.38344990  0.08217937  0.69608035    -0.31500
N215        N  0.36842202  0.08228224  0.64778982     0.15000
C216        C  0.35354089  0.10669560  0.64614856    -0.31600
H217        H  0.33863270  0.11179192  0.61351494     0.16900
C218        C  0.42418188  0.16013956  0.77144451    -0.30500
N219        N  0.42283177  0.18521000  0.74467547     0.13700
C220        C  0.39673494  0.18725753  0.72102855    -0.30500
C221        C  0.34132342  0.12051242  0.85579744    -0.30800
N222        N  0.31548027  0.13282601  0.85282934     0.14200
H223        H  0.34883519  0.10798653  0.89040575     0.16800
C224        C  0.31368476  0.14577864  0.80242673    -0.30800
H225        H  0.29512188  0.15655186  0.78707959     0.16800
H226        H  0.38958190  0.20450560  0.69537291     0.16800
H227        H  0.39763983  0.06555417  0.70863731     0.16900
H228        H  0.44283681  0.15198059  0.79180454     0.16800
N229        N  0.24376939  0.37466403  0.09321137    -0.35900
N230        N  0.28762224  0.37737910  0.00676963    -0.56500
N231        N  0.24383443  0.37731899  0.92122598    -0.35900
N232        N  0.19997242  0.37978228  0.00769032    -0.56500
C233        C  0.26701270  0.38100787  0.12356161     0.27700
C234        C  0.22091735  0.38176124  0.12395637     0.27700
C235        C  0.26697380  0.38447341  0.89127822     0.27700
C236        C  0.22076531  0.38608794  0.89217533     0.27700
C237        C  0.30359413  0.37108554  0.05229317     0.36300
C238        C  0.30372835  0.37216762  0.96124136     0.36300
C239        C  0.18404128  0.37311105  0.05265970     0.36300
C240        C  0.18397775  0.37490605  0.96172919     0.36300
C241        C  0.25880214  0.39261154  0.17361808    -0.21200
C242        C  0.22980119  0.39313851  0.17381355    -0.21200
C243        C  0.25840335  0.39832703  0.84336850    -0.21200
C244        C  0.22935362  0.39943431  0.84413540    -0.21200
C245        C  0.32984789  0.36169423  0.03553680    -0.22300
C246        C  0.32988815  0.36222132  0.97819258    -0.22200
C247        C  0.15796425  0.36367139  0.03491697    -0.22300
C248        C  0.15801025  0.36474402  0.97758062    -0.22200
C249        C  0.29541208  0.37531619  0.10871482    -0.17600
C250        C  0.19231517  0.37694722  0.10934433    -0.17600
C251        C  0.19213892  0.38083318  0.90592280    -0.17600
C252        C  0.29554653  0.37788528  0.90495897    -0.17600
H253        H  0.27225880  0.40018369  0.20659338     0.15300
H254        H  0.21682499  0.40126680  0.20688940     0.15300
H255        H  0.27167808  0.40710625  0.81140394     0.15300
H256        H  0.21599741  0.40927368  0.81312755     0.15300
H257        H  0.34719274  0.35500842  0.06184340     0.13600
H258        H  0.34726247  0.35585087  0.95216716     0.13600
H259        H  0.14078915  0.35636226  0.06043985     0.13600
H260        H  0.14115804  0.35810376  0.95055533     0.13600
H261        H  0.24352473  0.36348786  0.05615401     0.26900
H262        H  0.24365379  0.36458344  0.95648465     0.26900
N263        N  0.24340232  0.13045516  0.08291061    -0.35900
N264        N  0.28686307  0.13078290  0.99732604    -0.56500
N265        N  0.24286780  0.13647525  0.91188598    -0.35900
N266        N  0.19936048  0.13099924  0.99704507    -0.56500
C267        C  0.26696149  0.12351460  0.11255330     0.27700
C268        C  0.22058116  0.12178347  0.11232888     0.27700
C269        C  0.26558686  0.12832999  0.88183562     0.27700
C270        C  0.21956156  0.13009469  0.88180263     0.27700
C271        C  0.30292406  0.13643432  0.04263469     0.36300
C272        C  0.30234680  0.13786151  0.95224516     0.36300
C273        C  0.18344330  0.13461227  0.04322151     0.36300
C274        C  0.18351587  0.13972443  0.95303541     0.36300
C275        C  0.25902639  0.10999763  0.16088084    -0.21200
C276        C  0.22989314  0.10897393  0.16088834    -0.21200
C277        C  0.25658042  0.11623184  0.83281064    -0.21200
C278        C  0.22754408  0.11716275  0.83307347    -0.21200
C279        C  0.32850595  0.14741570  0.02627893    -0.22300
C280        C  0.32806034  0.14843119  0.96910462    -0.22200
C281        C  0.15758304  0.14602990  0.02847867    -0.22300
C282        C  0.15763486  0.14930612  0.97152991    -0.22200
C283        C  0.29533591  0.13022891  0.09827619    -0.17600
C284        C  0.19161518  0.12670696  0.09813197    -0.17600
C285        C  0.19136834  0.13670115  0.89631276    -0.17600
C286        C  0.29417130  0.13306182  0.89625624    -0.17600
H287        H  0.27285921  0.10147828  0.19262326     0.15300
H288        H  0.21704778  0.09976288  0.19306558     0.15300
H289        H  0.26954640  0.10735191  0.80047274     0.15300
H290        H  0.21380919  0.10866922  0.80159523     0.15300
H291        H  0.34564207  0.15418199  0.05267687     0.13600
H292        H  0.34462555  0.15639895  0.94301368     0.13600
H293        H  0.14056136  0.15179730  0.05587713     0.13600
H294        H  0.14050900  0.15773140  0.94667503     0.13600
H295        H  0.24288526  0.14299392  0.04754488     0.26900
H296        H  0.24327279  0.14829081  0.94805119     0.26900
C297        C  0.38383742  0.39804361  0.78542139     0.30700
C298        C  0.35156537  0.36556151  0.71930879     0.30700
C299        C  0.35573899  0.38849332  0.81158570    -0.05500
C300        C  0.37529765  0.41105139  0.72914694    -0.06300
C301        C  0.39726510  0.36973685  0.76907406    -0.06200
C302        C  0.33855601  0.37275951  0.77748728    -0.05500
C303        C  0.35839778  0.39496957  0.69550032    -0.06300
C304        C  0.38072749  0.35335685  0.73497167    -0.06200
C305        C  0.31405744  0.36776897  0.80831546    -0.31500
N306        N  0.31679515  0.37833579  0.86068821     0.15000
C307        C  0.34260376  0.39046765  0.86302148    -0.31600
H308        H  0.35123399  0.40023452  0.89964439     0.16900
C309        C  0.35281805  0.41113094  0.64817700    -0.30500
N310        N  0.36684126  0.43590717  0.65148450     0.13700
C311        C  0.38071451  0.43582698  0.70110706    -0.30500
C312        C  0.39537387  0.32868099  0.72602575    -0.30800
N313        N  0.42054918  0.32958620  0.75339008     0.14200
H314        H  0.38825577  0.31136568  0.70111646     0.16800
C315        C  0.42142289  0.35422146  0.78116469    -0.30800
H316        H  0.43835608  0.36003371  0.80892606     0.16800
H317        H  0.39405669  0.45249331  0.71572384     0.16800
H318        H  0.29524877  0.35743621  0.79382956     0.16900
H319        H  0.33948436  0.40533003  0.61364177     0.16800
C320        C  0.38544544  0.11348759  0.21711225     0.30700
C321        C  0.35155394  0.14629150  0.28001905     0.30700
C322        C  0.37766917  0.10152689  0.27542888    -0.05500
C323        C  0.39805576  0.14248834  0.23253643    -0.06300
C324        C  0.35655721  0.12116655  0.19086002    -0.06200
C325        C  0.36017649  0.11826942  0.30688656    -0.05500
C326        C  0.38031623  0.15952945  0.26311359    -0.06300
C327        C  0.33937380  0.13801628  0.22269913    -0.06200
C328        C  0.35542263  0.10451152  0.35693939    -0.31500
N329        N  0.36947307  0.07963934  0.35732498     0.15000
C330        C  0.38362499  0.07802701  0.30809196    -0.31600
H331        H  0.39773500  0.06116039  0.29731301     0.16900
C332        C  0.39423075  0.18492273  0.26948276    -0.30500
N333        N  0.42050749  0.18337102  0.24745044     0.13700
C334        C  0.42314487  0.15735064  0.22566649    -0.30500
C335        C  0.31547151  0.14388122  0.19089045    -0.30800
N336        N  0.31706568  0.13024471  0.14159438     0.14200
H337        H  0.29832333  0.15765056  0.20194911     0.16800
C338        C  0.34249540  0.11681024  0.14074887    -0.30800
H339        H  0.35029619  0.10482493  0.10605858     0.16800
H340        H  0.44246656  0.14981837  0.20746275     0.16800
H341        H  0.34256973  0.11212372  0.39070241     0.16900
H342        H  0.38602757  0.20354388  0.28861298     0.16800
C343        C  0.13615359  0.14658173  0.71010417     0.30700
C344        C  0.10310148  0.11563054  0.77831292     0.30700
C345        C  0.14850750  0.14103548  0.76899117    -0.05500
C346        C  0.10705380  0.16002319  0.72480761    -0.06300
C347        C  0.12776140  0.11768354  0.68862114    -0.06200
C348        C  0.13158530  0.12525804  0.80337657    -0.05500
C349        C  0.09019974  0.14412184  0.76020516    -0.06300
C350        C  0.11121078  0.10191183  0.72312837    -0.06200
C351        C  0.14490611  0.12363030  0.85479587    -0.31500
N352        N  0.16982143  0.13726527  0.85273502     0.15000
C353        C  0.17185314  0.14868095  0.80077705    -0.31600
H354        H  0.18916459  0.16152100  0.78707740     0.16900
C355        C  0.06739752  0.16081651  0.77461432    -0.30500
N356        N  0.06891670  0.18567214  0.74724107     0.13700
C357        C  0.09348377  0.18569553  0.71817468    -0.30500
C358        C  0.10491510  0.07754691  0.69491386    -0.30800
N359        N  0.11741660  0.07817074  0.64395528     0.14200
H360        H  0.09165608  0.06088239  0.70992574     0.16800
C361        C  0.13149213  0.10273830  0.64007844    -0.30800
H362        H  0.14348622  0.10941943  0.60430963     0.16800
H363        H  0.10104972  0.20343917  0.69488830     0.16800
H364        H  0.13725354  0.11298020  0.89136453     0.16900
H365        H  0.05118822  0.15577624  0.80428834     0.16800
C366        C  0.13403440  0.36559577  0.29214018     0.30700
C367        C  0.10295977  0.39721514  0.22166886     0.30700
C368        C  0.14811058  0.37204446  0.23496883    -0.05500
C369        C  0.10553642  0.35302011  0.27516339    -0.06300
C370        C  0.12630873  0.39495951  0.31348909    -0.06200
C371        C  0.13169013  0.38787334  0.19963343    -0.05500
C372        C  0.08910776  0.36911843  0.23953120    -0.06300
C373        C  0.10950507  0.41076471  0.27828924    -0.06200
C374        C  0.14577429  0.39088921  0.14976984    -0.31500
N375        N  0.17097541  0.37754515  0.15306374     0.15000
C376        C  0.17274336  0.36615224  0.20527723    -0.31600
H377        H  0.19078869  0.35446567  0.22037743     0.16900
C378        C  0.06442824  0.35398056  0.23090478    -0.30500
N379        N  0.06619103  0.32899464  0.25822083     0.13700
C380        C  0.09134384  0.32841577  0.28555866    -0.30500
C381        C  0.10241283  0.43490600  0.30673689    -0.30800
N382        N  0.11586502  0.43479453  0.35683056     0.14200
H383        H  0.08825405  0.45119321  0.29242104     0.16800
C384        C  0.13107746  0.41083217  0.36053121    -0.30800
H385        H  0.14469488  0.40558419  0.39519712     0.16800
H386        H  0.09878872  0.31136215  0.31142053     0.16800
H387        H  0.13829974  0.40246708  0.11385102     0.16900
H388        H  0.04627374  0.36053024  0.20674970     0.16800
O389        O  0.02088774  0.01586708  0.11748451    -0.79400
O390        O  0.46071016  0.04643507  0.94274217    -0.79500
O391        O  0.06085252  0.02869565  0.96916845    -0.79500
O392        O  0.46233681  0.04344366  0.04674669    -0.79400
O393        O  0.02047015  0.04787957  0.94281064    -0.79500
O394        O  0.46455958  0.01570545  0.11866226    -0.79500
O395        O  0.42096586  0.02762866  0.97329107    -0.79400
O396        O  0.02101463  0.04306850  0.04510719    -0.79500
C397        C  0.02585377  0.03944303  0.09574466     1.10300
C398        C  0.43370118  0.04468736  0.94224962     1.10100
C399        C  0.04752801  0.04640760  0.93963121     1.10300
C400        C  0.45842686  0.03916600  0.09751929     1.10200
O401        O  0.46420362  0.45976637  0.07294920    -0.79400
O402        O  0.01974187  0.49552648  0.88512792    -0.79500
O403        O  0.05213677  0.49060042  0.05383291    -0.79500
O404        O  0.44463700  0.47729381  0.96110096    -0.79400
O405        O  0.46514664  0.49238891  0.88752437    -0.79500
O406        O  0.01981958  0.45966764  0.07047177    -0.79500
O407        O  0.43181066  0.49121612  0.05728427    -0.79400
O408        O  0.03782374  0.47707039  0.95804427    -0.79500
Co409      Co  0.49241899  0.98795629  0.08985017     1.51500
Co410      Co  0.49141524  0.01842846  0.92406699     1.51700
Co411      Co  0.02865441  0.01077033  0.99794047     1.51600
Co412      Co  0.45428812  0.01081915  0.99997892     1.51500
O413        O  0.49175026  0.99730785  0.00668593    -1.41400
C414        C  0.43876369  0.46700236  0.07302252     1.10200
C415        C  0.03461645  0.47704794  0.90712569     1.10300
C416        C  0.04521393  0.46637937  0.06937872     1.10200
C417        C  0.44953304  0.47512814  0.91095969     1.10200
O418        O  0.28744100  0.22733921  0.43899401    -0.79400
O419        O  0.26364078  0.32183829  0.54053037    -0.79500
O420        O  0.25402102  0.28472726  0.38775336    -0.79500
O421        O  0.25348651  0.22926915  0.61168295    -0.79400
O422        O  0.28240280  0.28643298  0.46085496    -0.79500
O423        O  0.28489967  0.22960766  0.54758569    -0.79500
O424        O  0.26608584  0.28218636  0.58886415    -0.79400
O425        O  0.25550269  0.22976888  0.37329233    -0.79500
C426        C  0.28045636  0.22422100  0.38924753     1.10300
C427        C  0.27357851  0.30767369  0.58068183     1.10100
C428        C  0.27708236  0.29224611  0.41064087     1.10300
C429        C  0.27787938  0.22294650  0.59546954     1.10200
O430        O  0.23203306  0.19707256  0.54513827    -0.79400
O431        O  0.22805139  0.31189991  0.45571536    -0.79500
O432        O  0.20295689  0.22389417  0.43309010    -0.79500
O433        O  0.21561412  0.27003198  0.63284228    -0.79400
O434        O  0.21419990  0.29640333  0.55629210    -0.79500
O435        O  0.23692627  0.19304423  0.43551698    -0.79500
O436        O  0.20085933  0.23140665  0.55405978    -0.79400
O437        O  0.19887464  0.27815307  0.44276823    -0.79500
Co438      Co  0.26061215  0.21325714  0.49235067     1.51500
Co439      Co  0.25003337  0.28882142  0.50953584     1.51700
Co440      Co  0.22742129  0.25413928  0.41219359     1.51600
Co441      Co  0.23182513  0.25721790  0.56656211     1.51500
O442        O  0.24235189  0.25019293  0.48845168    -1.41400
C443        C  0.20736309  0.20585936  0.55785135     1.10200
C444        C  0.20500483  0.30309581  0.43692306     1.10300
C445        C  0.21201908  0.20007290  0.42168889     1.10200
C446        C  0.20677831  0.29130355  0.60660719     1.10200
C447        C  0.08634444  0.45891561  0.12654848    -0.11600
C448        C  0.06528088  0.44741073  0.09403748     0.05400
C449        C  0.05962828  0.41877879  0.09729567    -0.06900
C450        C  0.07223716  0.40305599  0.13873307    -0.07600
C451        C  0.08949689  0.41556648  0.17857611    -0.02200
C452        C  0.09902637  0.44325316  0.16826887     0.04700
N453        N  0.12156368  0.45603517  0.19837057     0.67200
H454        H  0.09178230  0.48071567  0.12201264     0.16100
H455        H  0.06886355  0.38090639  0.13820867     0.15800
N456        N  0.04021573  0.40553933  0.06063806     0.74900
O457        O  0.14657031  0.44839559  0.18905348    -0.38600
O458        O  0.11749309  0.47998858  0.21823373    -0.38500
O459        O  0.04967480  0.39311186  0.01858077    -0.39200
O460        O  0.01645255  0.39868240  0.07924053    -0.39300
C461        C  0.16770571  0.32706388  0.30982779    -0.11600
C462        C  0.15007092  0.34739964  0.33202546     0.05400
C463        C  0.14735364  0.34898108  0.39075644    -0.06900
C464        C  0.16829702  0.33711845  0.42385501    -0.07600
C465        C  0.18798234  0.31948140  0.40022040    -0.02200
C466        C  0.18660037  0.31291937  0.34334662     0.04700
N467        N  0.20126883  0.28967142  0.32034449     0.67200
H468        H  0.16605400  0.32118991  0.26662139     0.16100
H469        H  0.16730583  0.33887321  0.46873331     0.15800
N470        N  0.12201506  0.35820589  0.41752265     0.74900
O471        O  0.18806853  0.26713723  0.31680023    -0.38600
O472        O  0.22116256  0.29385515  0.28686083    -0.38500
O473        O  0.09854411  0.34931489  0.40065104    -0.39200
O474        O  0.12351490  0.36817898  0.46587538    -0.39300
C475        C  0.14274292  0.17790813  0.62728565    -0.11600
C476        C  0.15515738  0.16084857  0.66847208     0.05400
C477        C  0.18422989  0.15366124  0.66277569    -0.06900
C478        C  0.20041511  0.16780055  0.62372237    -0.07600
C479        C  0.18832427  0.18731119  0.58759065    -0.02200
C480        C  0.15899732  0.19130906  0.58728762     0.04700
N481        N  0.14529643  0.20742572  0.54473204     0.67200
H482        H  0.12013724  0.17983911  0.62386703     0.16100
H483        H  0.22291016  0.16381315  0.62227116     0.15800
N484        N  0.19797019  0.13207777  0.69478555     0.74900
O485        O  0.14653494  0.19930658  0.49502003    -0.38600
O486        O  0.12707270  0.22543828  0.55777869    -0.38500
O487        O  0.18721732  0.10817978  0.69834762    -0.39200
O488        O  0.22341439  0.13503006  0.70914022    -0.39300
C489        C  0.04534766  0.08040493  0.86306719    -0.11600
C490        C  0.06198126  0.06473133  0.90051391     0.05400
C491        C  0.09122326  0.06294909  0.89231538    -0.06900
C492        C  0.10297429  0.07677308  0.84750328    -0.07600
C493        C  0.08711612  0.09593224  0.81566170    -0.02200
C494        C  0.05749233  0.09519959  0.81941412     0.04700
N495        N  0.03954996  0.10524967  0.77545430     0.67200
H496        H  0.02256156  0.07977085  0.86533827     0.16100
H497        H  0.12521674  0.07364747  0.83969282     0.15800
N498        N  0.10944064  0.04789942  0.92950840     0.74900
O499        O  0.04370141  0.09693530  0.72649752    -0.38600
O500        O  0.01614294  0.11640930  0.78697386    -0.38500
O501        O  0.12159852  0.02597727  0.91330063    -0.39200
O502        O  0.11808081  0.05966556  0.97309424    -0.39300
C503        C  0.42488483  0.10514396  0.14804022    -0.11600
C504        C  0.40286502  0.09447191  0.18054175     0.05400
C505        C  0.39722922  0.06567958  0.17722796    -0.06900
C506        C  0.41721463  0.04797687  0.15412554    -0.07600
C507        C  0.44117660  0.05865496  0.12839682    -0.02200
C508        C  0.44459865  0.08752967  0.12364540     0.04700
N509        N  0.46828018  0.09924936  0.09570888     0.67200
H510        H  0.42637157  0.12705674  0.13918280     0.16100
H511        H  0.41298879  0.02586140  0.15281691     0.15800
N512        N  0.37041236  0.05437261  0.19163315     0.74900
O513        O  0.46528288  0.10866488  0.04699148    -0.38600
O514        O  0.48959020  0.10622282  0.12382494    -0.38500
O515        O  0.35024880  0.05711096  0.15767104    -0.39200
O516        O  0.36956369  0.03458299  0.22603734    -0.39300
C517        C  0.34421471  0.18495237  0.34824038    -0.11600
C518        C  0.33245407  0.16374421  0.31608063     0.05400
C519        C  0.30277901  0.16119777  0.31464034    -0.06900
C520        C  0.28628332  0.18359905  0.33165947    -0.07600
C521        C  0.29870791  0.20688375  0.35608973    -0.02200
C522        C  0.32797655  0.20740267  0.36500405     0.04700
N523        N  0.34150679  0.23077826  0.39005962     0.67200
H524        H  0.36620103  0.18439595  0.35994343     0.16100
H525        H  0.26353407  0.18152147  0.33120351     0.15800
N526        N  0.28915688  0.13524235  0.30302857     0.74900
O527        O  0.34980443  0.22918048  0.43985889    -0.38600
O528        O  0.35117411  0.24971368  0.35913923    -0.38500
O529        O  0.29561962  0.11406328  0.33167812    -0.39200
O530        O  0.26592886  0.13533396  0.27725486    -0.39300
C531        C  0.31570417  0.32791475  0.70587427    -0.11600
C532        C  0.33504227  0.34630086  0.68192085     0.05400
C533        C  0.33831153  0.34580192  0.62334891    -0.06900
C534        C  0.31726711  0.33372834  0.59100551    -0.07600
C535        C  0.29504176  0.31962335  0.61606816    -0.02200
C536        C  0.29503867  0.31541347  0.67381419     0.04700
N537        N  0.27339550  0.30000362  0.70102067     0.67200
H538        H  0.31628898  0.32327579  0.74975636     0.16100
H539        H  0.31887142  0.33424087  0.54606785     0.15800
N540        N  0.36355113  0.35484165  0.59628792     0.74900
O541        O  0.25256435  0.31298993  0.72068153    -0.38600
O542        O  0.27910624  0.27606439  0.71974091    -0.38500
O543        O  0.38667963  0.34340824  0.60924917    -0.39200
O544        O  0.36164257  0.36693626  0.54973135    -0.39300
C545        C  0.43052214  0.41805412  0.81312286    -0.11600
C546        C  0.40102616  0.41807954  0.81902396     0.05400
C547        C  0.38817273  0.43954822  0.85064596    -0.06900
C548        C  0.40491318  0.45582542  0.88437660    -0.07600
C549        C  0.43409614  0.45479787  0.87984189    -0.02200
C550        C  0.44713877  0.43620883  0.84354894     0.04700
N551        N  0.47709848  0.43454219  0.83937283     0.67200
H552        H  0.44086523  0.40481524  0.78331289     0.16100
H553        H  0.39507698  0.47124017  0.91081652     0.15800
N554        N  0.35910507  0.44753049  0.84442458     0.74900
O555        O  0.49021844  0.41654177  0.86796385    -0.38600
O556        O  0.48929376  0.44608788  0.79896020    -0.38500
O557        O  0.34453313  0.45231855  0.88712875    -0.39200
O558        O  0.35076457  0.45740818  0.79856144    -0.39300
C559        C  0.42449679  0.09194117  0.91165067    -0.11600
C560        C  0.41843862  0.06372501  0.90747211     0.05400
C561        C  0.40151029  0.05376800  0.86447417    -0.06900
C562        C  0.39189553  0.07210970  0.82447722    -0.07600
C563        C  0.39986509  0.10024765  0.82467568    -0.02200
C564        C  0.41418492  0.11063407  0.87224029     0.04700
N565        N  0.41573692  0.13966011  0.88504247     0.67200
H566        H  0.43669149  0.09952253  0.94658872     0.15100
H567        H  0.37697299  0.06411471  0.79467483     0.15800
N568        N  0.39507630  0.02493074  0.85877670     0.74900
O569        O  0.43944250  0.15020443  0.89578541    -0.38600
O570        O  0.39388498  0.15194377  0.90205557    -0.38500
O571        O  0.37114520  0.01655701  0.87393821    -0.39200
O572        O  0.40866193  0.01085702  0.82366264    -0.39300
C573        C  0.30017286  0.20974740  0.68312419    -0.11600
C574        C  0.29645340  0.20495344  0.62680264     0.05400
C575        C  0.31298261  0.18489681  0.59926195    -0.06900
C576        C  0.33251050  0.16951002  0.62914462    -0.07600
C577        C  0.33454595  0.17221543  0.68667399    -0.02200
C578        C  0.32023894  0.19467839  0.71287631     0.04700
N579        N  0.32771160  0.20444838  0.76707333     0.67200
H580        H  0.28862834  0.22624313  0.70334206     0.16100
H581        H  0.34642946  0.15596869  0.60650089     0.15800
N582        N  0.30953236  0.17915156  0.54135034     0.74900
O583        O  0.30881092  0.20661067  0.80355048    -0.38600
O584        O  0.34905933  0.21975393  0.77132814    -0.38500
O585        O  0.32888487  0.18558323  0.50799858    -0.39200
O586        O  0.29087830  0.16214850  0.52616638    -0.39300
C587        C  0.08773810  0.44856920  0.81129009    -0.11600
C588        C  0.08636045  0.41986405  0.82216974     0.05400
C589        C  0.07005213  0.41074941  0.86783980    -0.06900
C590        C  0.05203541  0.42969030  0.89351218    -0.07600
C591        C  0.05012891  0.45720930  0.87453068    -0.02200
C592        C  0.06790919  0.46666301  0.83251070     0.04700
N593        N  0.06676361  0.49469268  0.81217407     0.67200
H594        H  0.10412884  0.45729257  0.78574832     0.16100
H595        H  0.03998708  0.42316570  0.92935131     0.15800
N596        N  0.07409779  0.38403415  0.89342328     0.74900
O597        O  0.08724273  0.51067129  0.82113766    -0.38600
O598        O  0.04964710  0.00077259  0.77382796    -0.38500
O599        O  0.09541553  0.38048359  0.92411116    -0.39200
O600        O  0.05300024  0.36866403  0.90137871    -0.39300
C601        C  0.20101131  0.33543277  0.65370917    -0.11600
C602        C  0.18876284  0.31126809  0.63294719     0.05400
C603        C  0.15955915  0.30907969  0.62924363    -0.06900
C604        C  0.14297428  0.32996242  0.65147072    -0.07600
C605        C  0.15505824  0.35085977  0.68410476    -0.02200
C606        C  0.18438832  0.35562046  0.67912197     0.04700
N607        N  0.19735136  0.38116261  0.69576159     0.67200
H608        H  0.22341994  0.33887491  0.64902355     0.16100
H609        H  0.12067382  0.32966498  0.64286582     0.15800
N610        N  0.14647493  0.28555746  0.60438043     0.74900
O611        O  0.22019148  0.38019134  0.72278578    -0.38600
O612        O  0.19120681  0.40328141  0.66979491    -0.38500
O613        O  0.13588739  0.26719565  0.63548595    -0.39200
O614        O  0.13954167  0.28658012  0.55373318    -0.39300
C615        C  0.32492262  0.30945600  0.39417138    -0.11600
C616        C  0.29603564  0.31117508  0.38209430     0.05400
C617        C  0.28560275  0.33392519  0.35077137    -0.06900
C618        C  0.30438365  0.35253748  0.32782534    -0.07600
C619        C  0.33342817  0.34827426  0.33222243    -0.02200
C620        C  0.34365750  0.32872450  0.37170513     0.04700
N621        N  0.37124005  0.33088495  0.39585124     0.67200
H622        H  0.33268227  0.29406234  0.42368305     0.16100
H623        H  0.29600908  0.37043852  0.30553730     0.15800
N624        N  0.25622704  0.34008882  0.34512419     0.74900
O625        O  0.38531423  0.30907208  0.40641668    -0.38600
O626        O  0.37803754  0.35323461  0.41962002    -0.38500
O627        O  0.24419943  0.35260850  0.38444844    -0.39200
O628        O  0.24616616  0.34295935  0.29677238    -0.39300
C629        C  0.41176567  0.40405302  0.14166301    -0.11600
C630        C  0.39595136  0.41666046  0.18390761     0.05400
C631        C  0.38632560  0.44446001  0.17476293    -0.06900
C632        C  0.39878504  0.46049688  0.13371077    -0.07600
C633        C  0.41864384  0.44869537  0.09870608    -0.02200
C634        C  0.42303651  0.41984794  0.09902230     0.04700
N635        N  0.43765782  0.40627178  0.05496310     0.67200
H636        H  0.41412293  0.38174370  0.13937206     0.16100
H637        H  0.39342578  0.48238817  0.13019890     0.15800
N638        N  0.36310827  0.45647754  0.20395165     0.74900
O639        O  0.46070244  0.39409664  0.06524210    -0.38600
O640        O  0.42419034  0.39995430  0.01152564    -0.38500
O641        O  0.36640970  0.47985800  0.22640371    -0.39200
O642        O  0.33839706  0.44876679  0.19248833    -0.39300
C643        C  0.17936087  0.19974209  0.34417331    -0.11600
C644        C  0.19530927  0.18419722  0.38245329     0.05400
C645        C  0.19563339  0.15520592  0.37921061    -0.06900
C646        C  0.17803745  0.14250429  0.34062598    -0.07600
C647        C  0.15829774  0.15831347  0.30918172    -0.02200
C648        C  0.16191142  0.18732740  0.30556204     0.04700
N649        N  0.14980865  0.20433122  0.26196520     0.67200
H650        H  0.18086376  0.22193416  0.34380840     0.16100
H651        H  0.17919561  0.12009830  0.33691188     0.15800
N652        N  0.21145064  0.13849059  0.41762212     0.74900
O653        O  0.14410337  0.22962820  0.27095651    -0.38600
O654        O  0.14926353  0.19572406  0.21252965    -0.38500
O655        O  0.19971549  0.12989042  0.46137657    -0.39200
O656        O  0.23440355  0.12758071  0.40254142    -0.39300
C657        C  0.05608313  0.08115070  0.09610059    -0.11600
C658        C  0.04056263  0.06139381  0.12631872     0.05400
C659        C  0.04027666  0.06281450  0.18444175    -0.06900
C660        C  0.05711795  0.08225849  0.21097501    -0.07600
C661        C  0.07706254  0.09800193  0.18141722    -0.02200
C662        C  0.07382292  0.10007687  0.12291456     0.04700
N663        N  0.08684505  0.12166959  0.09037766     0.67200
H664        H  0.05472721  0.08165342  0.05116004     0.16100
H665        H  0.05486015  0.08443294  0.25535494     0.15800
N666        N  0.02367174  0.04432185  0.21730796     0.74900
O667        O  0.09284835  0.11736675  0.04006098    -0.38600
O668        O  0.08815430  0.14621820  0.10861144    -0.38500
O669        O  0.03518074  0.02301175  0.23861507    -0.39200
O670        O  0.00010759  0.05246310  0.23529788    -0.39300
C671        C  0.09942887  0.61345553  0.21422975     0.30700
C672        C  0.13580426  0.64339070  0.27703587     0.30700
C673        C  0.12895347  0.61868608  0.18757813    -0.05500
C674        C  0.08913709  0.64286680  0.23077417    -0.06300
C675        C  0.10781768  0.60016004  0.27157878    -0.06200
C676        C  0.14699788  0.63414464  0.22029809    -0.05500
C677        C  0.10733522  0.65819924  0.26351965    -0.06300
C678        C  0.12554832  0.61611335  0.30397504    -0.06200
C679        C  0.17190998  0.63792581  0.19167116    -0.31500
N680        N  0.17015779  0.62513087  0.14163828     0.15000
C681        C  0.14419342  0.61276970  0.13919993    -0.31600
H682        H  0.13694829  0.60046540  0.10453944     0.16900
C683        C  0.09271751  0.68243479  0.27784806    -0.30500
N684        N  0.06692417  0.68281355  0.25232559     0.13700
C685        C  0.06458541  0.65840180  0.22404791    -0.30500
C686        C  0.12864534  0.60279391  0.35500228    -0.30800
N687        N  0.11477548  0.57823036  0.35384284     0.14200
H688        H  0.14030458  0.61023797  0.39061957     0.16800
C689        C  0.10242768  0.57615622  0.30275343    -0.30800
H690        H  0.09049355  0.55824286  0.28947124     0.16800
H691        H  0.04622597  0.65222092  0.20037369     0.16800
H692        H  0.18980242  0.64990516  0.20578576     0.16900
H693        H  0.10000043  0.69839333  0.30590035     0.16800
N694        N  0.49384074  0.71306909  0.24925097    -0.35900
N695        N  0.03759618  0.75594670  0.25903461    -0.56500
N696        N  0.49348598  0.79916963  0.25295033    -0.35900
N697        N  0.44974843  0.75619516  0.25329914    -0.56500
C698        C  0.01689770  0.69768703  0.26399137     0.27700
C699        C  0.47059318  0.69777074  0.26144211     0.27700
C700        C  0.01640879  0.81421303  0.26814911     0.27700
C701        C  0.47021366  0.81436072  0.26613562     0.27700
C702        C  0.05366341  0.73330169  0.24644706     0.36300
C703        C  0.05345600  0.77883645  0.24819004     0.36300
C704        C  0.43414163  0.73364999  0.23884178     0.36300
C705        C  0.43396418  0.77925060  0.24141396     0.36300
C706        C  0.00818411  0.67258696  0.28649071    -0.21200
C707        C  0.47910404  0.67270036  0.28523133    -0.21200
C708        C  0.00759113  0.83899173  0.29181951    -0.21200
C709        C  0.47853314  0.83905169  0.29073277    -0.21200
C710        C  0.07961987  0.74192170  0.22703658    -0.22300
C711        C  0.07956943  0.77062691  0.22840297    -0.22200
C712        C  0.40856433  0.74257487  0.21680352    -0.22300
C713        C  0.40840034  0.77129102  0.21872519    -0.22200
C714        C  0.04557343  0.70498439  0.25449350    -0.17600
C715        C  0.44206226  0.70522019  0.24866706    -0.17600
C716        C  0.44177920  0.80726821  0.25358237    -0.17600
C717        C  0.04504040  0.80697203  0.25802031    -0.17600
H718        H  0.02140198  0.65590263  0.30245498     0.15300
H719        H  0.46581557  0.65612192  0.30041913     0.15300
H720        H  0.02072300  0.85537077  0.30830902     0.15300
H721        H  0.46511961  0.85549610  0.30640297     0.15300
H722        H  0.09664604  0.72892744  0.21226301     0.13600
H723        H  0.09669032  0.78388381  0.21534051     0.13600
H724        H  0.39173169  0.72981885  0.20063479     0.13600
H725        H  0.39143989  0.78475091  0.20453385     0.13600
H726        H  0.49405546  0.73159031  0.22663826     0.26900
H727        H  0.49378889  0.78104214  0.22949945     0.26900
C728        C  0.35181498  0.86519990  0.29426188     0.30700
C729        C  0.38253041  0.89814197  0.22647378     0.30700
C730        C  0.33868113  0.87129599  0.23587137    -0.05500
C731        C  0.35886153  0.89441410  0.31761993    -0.06300
C732        C  0.38089891  0.85300506  0.27768171    -0.06200
C733        C  0.35438063  0.88836734  0.20250597    -0.05500
C734        C  0.37499396  0.91108198  0.28345718    -0.06300
C735        C  0.39711654  0.87010769  0.24384701    -0.06200
C736        C  0.34078770  0.89093695  0.15159849    -0.31500
N737        N  0.31685067  0.87569504  0.15244796     0.15000
C738        C  0.31564455  0.86311471  0.20345649    -0.31600
H739        H  0.29912556  0.84897927  0.21582916     0.16900
C740        C  0.38097800  0.93518907  0.31327582    -0.30500
N741        N  0.36787323  0.93431409  0.36361528     0.13700
C742        C  0.35444371  0.90921366  0.36659892    -0.30500
C743        C  0.42166660  0.85512425  0.23218901    -0.30800
N744        N  0.42014262  0.82914187  0.25532478     0.14200
H745        H  0.43938483  0.86237916  0.20812426     0.16800
C746        C  0.39496091  0.82759550  0.28194681    -0.30800
H747        H  0.38715683  0.80893988  0.30164521     0.16800
H748        H  0.34248573  0.90204220  0.40202393     0.16800
H749        H  0.34771359  0.90333843  0.11659606     0.16900
H750        H  0.39446362  0.95196515  0.29976297     0.16800
N751        N  0.11255899  0.50672506  0.41406316    -0.35900
N752        N  0.11578645  0.54932360  0.49942482    -0.56500
N753        N  0.11369300  0.50577271  0.58567167    -0.35900
N754        N  0.11536625  0.96324611  0.50015381    -0.56500
C755        C  0.12060321  0.52932587  0.38438522     0.27700
C756        C  0.12072263  0.98394752  0.38532804     0.27700
C757        C  0.12076747  0.52842228  0.61614669     0.27700
C758        C  0.12046016  0.98269584  0.61599600     0.27700
C759        C  0.10974830  0.56537522  0.45414184     0.36300
C760        C  0.11035183  0.56503677  0.54491677     0.36300
C761        C  0.10796299  0.94838197  0.45476471     0.36300
C762        C  0.10904698  0.94729338  0.54495986     0.36300
C763        C  0.13441825  0.52079832  0.33674730    -0.21200
C764        C  0.13473374  0.99209223  0.33778554    -0.21200
C765        C  0.13230863  0.51956983  0.66632826    -0.21200
C766        C  0.13209066  0.99083423  0.66625583    -0.21200
C767        C  0.10018273  0.59126718  0.47100863    -0.22300
C768        C  0.10056105  0.59106076  0.52829439    -0.22200
C769        C  0.09628532  0.92331605  0.47077575    -0.22300
C770        C  0.09732101  0.92241006  0.52801783    -0.22200
C771        C  0.11456576  0.55735512  0.39803933    -0.17600
C772        C  0.11429143  0.95610867  0.39938666    -0.17600
C773        C  0.11498517  0.95455385  0.60070301    -0.17600
C774        C  0.11583922  0.55681368  0.60102857    -0.17600
H775        H  0.14366728  0.53388010  0.30502827     0.15300
H776        H  0.14461647  0.97865011  0.30762798     0.15300
H777        H  0.14024338  0.53242341  0.69963950     0.15300
H778        H  0.13975266  0.97748573  0.69947040     0.15300
H779        H  0.09354765  0.60853480  0.44491651     0.13600
H780        H  0.09419403  0.60816215  0.55458785     0.13600
H781        H  0.08794561  0.90737957  0.44381390     0.13600
H782        H  0.09006292  0.90552145  0.55413165     0.13600
H783        H  0.09947835  0.50682403  0.44903248     0.26900
H784        H  0.10215272  0.50612889  0.54842763     0.26900
N785        N  0.37140806  0.50749875  0.41929111    -0.35900
N786        N  0.36758494  0.96491114  0.50694751    -0.56500
N787        N  0.37028492  0.50894718  0.59172925    -0.35900
N788        N  0.36829533  0.55164791  0.50390580    -0.56500
C789        C  0.36283621  0.98446114  0.39107269     0.27700
C790        C  0.36335347  0.53031824  0.38908099     0.27700
C791        C  0.36346320  0.98619938  0.62310872     0.27700
C792        C  0.36387867  0.53214912  0.62174752     0.27700
C793        C  0.37433176  0.94890677  0.46247676     0.36300
C794        C  0.37434159  0.94982023  0.55301698     0.36300
C795        C  0.37404264  0.56720919  0.45796958     0.36300
C796        C  0.37335206  0.56803207  0.54876004     0.36300
C797        C  0.34852102  0.99283584  0.34364140    -0.21200
C798        C  0.34889490  0.52165363  0.34226993    -0.21200
C799        C  0.35245285  0.99517302  0.67312890    -0.21200
C800        C  0.35286982  0.52399824  0.67247429    -0.21200
C801        C  0.38585178  0.92386881  0.48040007    -0.22300
C802        C  0.38608732  0.92459004  0.53766296    -0.22200
C803        C  0.38298722  0.59340421  0.47387021    -0.22300
C804        C  0.38247280  0.59395016  0.53107697    -0.22200
C805        C  0.36854112  0.95614034  0.40620574    -0.17600
C806        C  0.36939850  0.55870435  0.40198649    -0.17600
C807        C  0.36861556  0.56044625  0.60537295    -0.17600
C808        C  0.36821177  0.95766367  0.60860971    -0.17600
H809        H  0.33799865  0.97949762  0.31415301     0.15300
H810        H  0.33875897  0.53483987  0.31148637     0.15300
H811        H  0.34455550  0.98233704  0.70643782     0.15300
H812        H  0.34553673  0.53739248  0.70547476     0.15300
H813        H  0.39356370  0.90699004  0.45494622     0.13600
H814        H  0.39429363  0.90852756  0.56505036     0.13600
H815        H  0.38929228  0.61044017  0.44719349     0.13600
H816        H  0.38837614  0.61146315  0.55662494     0.13600
H817        H  0.38426593  0.50759933  0.45406682     0.26900
H818        H  0.38096208  0.50860129  0.55468431     0.26900
C819        C  0.10325544  0.90052440  0.78578436     0.30700
C820        C  0.13644996  0.86773237  0.72181775     0.30700
C821        C  0.13239614  0.89307319  0.81094276    -0.05500
C822        C  0.09050633  0.87176010  0.77136457    -0.06300
C823        C  0.11007888  0.91201599  0.72670016    -0.06200
C824        C  0.14916252  0.87591023  0.77888861    -0.05500
C825        C  0.10777825  0.85464458  0.73981726    -0.06300
C826        C  0.12749559  0.89554591  0.69491586    -0.06200
C827        C  0.17249997  0.86882042  0.81143138    -0.31500
N828        N  0.17093545  0.88202249  0.86147230     0.15000
C829        C  0.14644290  0.89704429  0.86121441    -0.31600
H830        H  0.13919983  0.90973797  0.89536075     0.16900
C831        C  0.09340279  0.82962104  0.73343855    -0.30500
N832        N  0.06741151  0.83149414  0.75670145     0.13700
C833        C  0.06543376  0.85740564  0.77954770    -0.30500
C834        C  0.13066243  0.90875629  0.64366443    -0.30800
N835        N  0.11546557  0.93291727  0.64346396     0.14200
H836        H  0.14321432  0.90138337  0.60925170     0.16800
C837        C  0.10181305  0.93426546  0.69276323    -0.30800
H838        H  0.08660316  0.95038060  0.70229184     0.16800
H839        H  0.04683050  0.86548181  0.79964906     0.16800
H840        H  0.18918160  0.85453141  0.80004294     0.16900
H841        H  0.10109222  0.81099524  0.71351979     0.16800
N842        N  0.03875577  0.75859387  0.74714827    -0.35900
N843        N  0.49441928  0.80131475  0.75486551    -0.56500
N844        N  0.45152829  0.75779108  0.74380708    -0.35900
N845        N  0.49570150  0.71498705  0.74653444    -0.56500
C846        C  0.05378158  0.78126880  0.76324167     0.27700
C847        C  0.05456940  0.73547474  0.75862039     0.27700
C848        C  0.43593444  0.78007576  0.76029954     0.27700
C849        C  0.43690257  0.73451373  0.75740130     0.27700
C850        C  0.01715833  0.81751524  0.74415087     0.36300
C851        C  0.47118844  0.81688560  0.74255605     0.36300
C852        C  0.01892013  0.69962002  0.73434560     0.36300
C853        C  0.47301708  0.69917328  0.73340115     0.36300
C854        C  0.07927519  0.77226456  0.78568236    -0.21200
C855        C  0.07984475  0.74354186  0.78235552    -0.21200
C856        C  0.41136256  0.77086241  0.78490679    -0.21200
C857        C  0.41224007  0.74216323  0.78380527    -0.21200
C858        C  0.00821749  0.84322186  0.72406953    -0.22300
C859        C  0.47921150  0.84286346  0.72334686    -0.22200
C860        C  0.01087917  0.67417393  0.71265908    -0.22300
C861        C  0.48186288  0.67387553  0.71214944    -0.22200
C862        C  0.04574328  0.80983260  0.75505601    -0.17600
C863        C  0.04719222  0.70737438  0.74637463    -0.17600
C864        C  0.44456821  0.70662465  0.74426809    -0.17600
C865        C  0.44287489  0.80850474  0.75176186    -0.17600
H866        H  0.09583617  0.78499697  0.80299169     0.15300
H867        H  0.09688279  0.73012170  0.79634427     0.15300
H868        H  0.39484613  0.78347580  0.80300935     0.15300
H869        H  0.39699782  0.72838197  0.80216298     0.15300
H870        H  0.02112825  0.86044150  0.71058435     0.13600
H871        H  0.46563755  0.85976656  0.70967566     0.13600
H872        H  0.02447151  0.65748674  0.69865373     0.13600
H873        H  0.46882957  0.65692861  0.69781227     0.13600
H874        H  0.02003653  0.75901910  0.72461807     0.26900
H875        H  0.46967701  0.75854202  0.71980890     0.26900
C876        C  0.35219950  0.65174217  0.71892784     0.30700
C877        C  0.38503791  0.61879537  0.78371343     0.30700
C878        C  0.35989319  0.62278053  0.69295135    -0.05500
C879        C  0.38124211  0.66380628  0.73463166    -0.06300
C880        C  0.33915527  0.64291960  0.77472625    -0.06200
C881        C  0.37759912  0.60637930  0.72578118    -0.05500
C882        C  0.39828642  0.64690358  0.76727072    -0.06300
C883        C  0.35614675  0.62661470  0.80779450    -0.06200
C884        C  0.38343640  0.58218776  0.69604142    -0.31500
N885        N  0.36841472  0.58230440  0.64774114     0.15000
C886        C  0.35354060  0.60672172  0.64611159    -0.31600
H887        H  0.33863723  0.61183041  0.61347644     0.16900
C888        C  0.42418007  0.66012338  0.77145287    -0.30500
N889        N  0.42283798  0.68519418  0.74468375     0.13700
C890        C  0.39674245  0.68725111  0.72103749    -0.30500
C891        C  0.34129573  0.62050572  0.85576319    -0.30800
N892        N  0.31545442  0.63282312  0.85278208     0.14200
H893        H  0.34880028  0.60797721  0.89037378     0.16800
C894        C  0.31366892  0.64578229  0.80238594    -0.30800
H895        H  0.29511009  0.65656055  0.78703384     0.16800
H896        H  0.38959580  0.70450128  0.69538049     0.16800
H897        H  0.39761926  0.56555579  0.70859329     0.16900
H898        H  0.44283275  0.65195735  0.79181065     0.16800
N899        N  0.24376904  0.87466549  0.09321680    -0.35900
N900        N  0.28762819  0.87734328  0.00677441    -0.56500
N901        N  0.24384578  0.87728541  0.92122537    -0.35900
N902        N  0.19997863  0.87978692  0.00769136    -0.56500
C903        C  0.26701511  0.88100207  0.12356390     0.27700
C904        C  0.22092064  0.88178112  0.12395568     0.27700
C905        C  0.26698798  0.88442993  0.89127440     0.27700
C906        C  0.22077878  0.88605260  0.89216514     0.27700
C907        C  0.30359476  0.87104965  0.05230530     0.36300
C908        C  0.30373771  0.87212801  0.96125171     0.36300
C909        C  0.18404140  0.87313590  0.05266566     0.36300
C910        C  0.18398456  0.87490401  0.96173202     0.36300
C911        C  0.25881037  0.89262069  0.17361055    -0.21200
C912        C  0.22980962  0.89316361  0.17380408    -0.21200
C913        C  0.25842079  0.89827504  0.84335269    -0.21200
C914        C  0.22937135  0.89938651  0.84411438    -0.21200
C915        C  0.32984856  0.86165317  0.03555871    -0.22300
C916        C  0.32989474  0.86217922  0.97821379    -0.22200
C917        C  0.15796093  0.86370366  0.03492790    -0.22300
C918        C  0.15801145  0.86475859  0.97759081    -0.22200
C919        C  0.29541122  0.87529133  0.10872414    -0.17600
C920        C  0.19231662  0.87697646  0.10934922    -0.17600
C921        C  0.19214977  0.88081139  0.90591841    -0.17600
C922        C  0.29556061  0.87784290  0.90496453    -0.17600
H923        H  0.27227091  0.90019138  0.20658108     0.15300
H924        H  0.21683664  0.90130398  0.20687324     0.15300
H925        H  0.27169727  0.90704764  0.81138387     0.15300
H926        H  0.21601844  0.90922278  0.81309722     0.15300
H927        H  0.34719063  0.85496749  0.06187268     0.13600
H928        H  0.34727099  0.85580706  0.95219488     0.13600
H929        H  0.14078125  0.85640812  0.06045407     0.13600
H930        H  0.14115823  0.85811636  0.95057010     0.13600
H931        H  0.24351938  0.86348153  0.05616955     0.26900
H932        H  0.24366065  0.86455919  0.95649665     0.26900
N933        N  0.24338704  0.63045452  0.08286543    -0.35900
N934        N  0.28683923  0.63079345  0.99727019    -0.56500
N935        N  0.24284034  0.63646329  0.91184345    -0.35900
N936        N  0.19933953  0.63097786  0.99701520    -0.56500
C937        C  0.26695055  0.62351636  0.11249473     0.27700
C938        C  0.22057206  0.62177193  0.11228726     0.27700
C939        C  0.26555955  0.62832441  0.88178680     0.27700
C940        C  0.21953398  0.63007400  0.88177037     0.27700
C941        C  0.30289914  0.63645868  0.04257212     0.36300
C942        C  0.30231571  0.63787889  0.95218520     0.36300
C943        C  0.18342698  0.63459461  0.04319627     0.36300
C944        C  0.18349061  0.63969951  0.95300921     0.36300
C945        C  0.25902490  0.60998718  0.16081471    -0.21200
C946        C  0.22989174  0.60895630  0.16083435    -0.21200
C947        C  0.25655341  0.61622192  0.83276626    -0.21200
C948        C  0.22751647  0.61714238  0.83304071    -0.21200
C949        C  0.32847227  0.64745659  0.02620859    -0.22300
C950        C  0.32802204  0.64846823  0.96903407    -0.22200
C951        C  0.15756515  0.64601068  0.02845986    -0.22300
C952        C  0.15761079  0.64928136  0.97150959    -0.22200
C953        C  0.29531952  0.63024678  0.09821327    -0.17600
C954        C  0.19160521  0.62669357  0.09810506    -0.17600
C955        C  0.19134105  0.63667748  0.89628599    -0.17600
C956        C  0.29414283  0.63306483  0.89620248    -0.17600
H957        H  0.27286408  0.60146596  0.19254445     0.15300
H958        H  0.21705133  0.59973760  0.19301076     0.15300
H959        H  0.26951997  0.60734677  0.80042406     0.15300
H960        H  0.21378122  0.60864391  0.80156862     0.15300
H961        H  0.34560539  0.65423453  0.05260204     0.13600
H962        H  0.34457798  0.65644646  0.94293386     0.13600
H963        H  0.14054710  0.65178156  0.05586374     0.13600
H964        H  0.14048271  0.65770486  0.94665834     0.13600
H965        H  0.24286243  0.64300075  0.04750891     0.26900
H966        H  0.24324391  0.64828151  0.94800613     0.26900
C967        C  0.38385211  0.89801022  0.78542873     0.30700
C968        C  0.35157953  0.86553196  0.71930253     0.30700
C969        C  0.35575492  0.88845519  0.81159170    -0.05500
C970        C  0.37531077  0.91102205  0.72915760    -0.06300
C971        C  0.39727946  0.86970567  0.76906954    -0.06200
C972        C  0.33857188  0.87272333  0.77748854    -0.05500
C973        C  0.35841188  0.89494206  0.69550428    -0.06300
C974        C  0.38074201  0.85332803  0.73495972    -0.06200
C975        C  0.31407513  0.86772821  0.80832104    -0.31500
N976        N  0.31681279  0.87829137  0.86069745     0.15000
C977        C  0.34262099  0.89042494  0.86303060    -0.31600
H978        H  0.35125113  0.90019237  0.89965317     0.16900
C979        C  0.35283845  0.91110386  0.64817823    -0.30500
N980        N  0.36686210  0.93587972  0.65149302     0.13700
C981        C  0.38073161  0.93579748  0.70111976    -0.30500
C982        C  0.39538679  0.82865221  0.72601142    -0.30800
N983        N  0.42056023  0.82955639  0.75338011     0.14200
H984        H  0.38826913  0.81133743  0.70110010     0.16800
C985        C  0.42143328  0.85418693  0.78116663    -0.30800
H986        H  0.43836280  0.85999034  0.80894386     0.16800
H987        H  0.39407487  0.95246217  0.71574020     0.16800
H988        H  0.29526564  0.85739759  0.79383374     0.16900
H989        H  0.33950997  0.90530279  0.61363522     0.16800
C990        C  0.38542563  0.61349445  0.21704874     0.30700
C991        C  0.35153952  0.64630603  0.27995013     0.30700
C992        C  0.37763716  0.60153198  0.27535985    -0.05500
C993        C  0.39804483  0.64249117  0.23248383    -0.06300
C994        C  0.35654299  0.62118607  0.19078592    -0.06200
C995        C  0.36014739  0.61827911  0.30681313    -0.05500
C996        C  0.38030763  0.65953593  0.26305759    -0.06300
C997        C  0.33936167  0.63803844  0.22262485    -0.06200
C998        C  0.35538236  0.60452109  0.35686146    -0.31500
N999        N  0.36942245  0.57964328  0.35725131     0.15000
C1000       C  0.38357862  0.57802740  0.30802246    -0.31600
H1001       H  0.39768426  0.56115646  0.29724830     0.16900
C1002       C  0.39422397  0.68492916  0.26941704    -0.30500
N1003       N  0.42050057  0.68337473  0.24738575     0.13700
C1004       C  0.42313537  0.65735218  0.22560857    -0.30500
C1005       C  0.31545929  0.64390534  0.19081909    -0.30800
N1006       N  0.31705257  0.63026925  0.14152266     0.14200
H1007       H  0.29831076  0.65767325  0.20188239     0.16800
C1008       C  0.34248145  0.61683383  0.14067325    -0.30800
H1009       H  0.35027960  0.60484714  0.10598255     0.16800
H1010       H  0.44245554  0.64981850  0.20740125     0.16800
H1011       H  0.34253326  0.61213967  0.39062409     0.16900
H1012       H  0.38602096  0.70355355  0.28853452     0.16800
C1013       C  0.13615374  0.64656639  0.71005640     0.30700
C1014       C  0.10308679  0.61561821  0.77824830     0.30700
C1015       C  0.14849301  0.64102617  0.76895666    -0.05500
C1016       C  0.10705001  0.66000539  0.72472772    -0.06300
C1017       C  0.12776928  0.61766599  0.68857856    -0.06200
C1018       C  0.13156419  0.62524915  0.80333179    -0.05500
C1019       C  0.09018856  0.64410688  0.76011826    -0.06300
C1020       C  0.11120959  0.60189690  0.72307524    -0.06200
C1021       C  0.14487911  0.62361390  0.85475524    -0.31500
N1022       N  0.16979500  0.63724891  0.85270877     0.15000
C1023       C  0.17183368  0.64866888  0.80075611    -0.31600
H1024       H  0.18914880  0.66150700  0.78706757     0.16900
C1025       C  0.06739157  0.66080787  0.77452209    -0.30500
N1026       N  0.06891816  0.68566091  0.74714332     0.13700
C1027       C  0.09348690  0.68567951  0.71808523    -0.30500
C1028       C  0.10491415  0.57753393  0.69485741    -0.30800
N1029       N  0.11742797  0.57815493  0.64391137     0.14200
H1030       H  0.09164648  0.56087333  0.70985653     0.16800
C1031       C  0.13150865  0.60271945  0.64004204    -0.30800
H1032       H  0.14350909  0.60939859  0.60428003     0.16800
H1033       H  0.10105963  0.70342163  0.69480285     0.16800
H1034       H  0.13722402  0.61295479  0.89131176     0.16900
H1035       H  0.05118251  0.65577633  0.80420177     0.16800
C1036       C  0.13402996  0.86561125  0.29213954     0.30700
C1037       C  0.10295794  0.89723480  0.22167583     0.30700
C1038       C  0.14811251  0.87207317  0.23497887    -0.05500
C1039       C  0.10553691  0.85303137  0.27514127    -0.06300
C1040       C  0.12629335  0.89497012  0.31350761    -0.06200
C1041       C  0.13169290  0.88790382  0.19964698    -0.05500
C1042       C  0.08910945  0.86913210  0.23951316    -0.06300
C1043       C  0.10949166  0.91077752  0.27830794    -0.06200
C1044       C  0.14577809  0.89092437  0.14978441    -0.31500
N1045       N  0.17097934  0.87758048  0.15307480     0.15000
C1046       C  0.17274670  0.86618483  0.20528678    -0.31600
H1047       H  0.19079062  0.85449483  0.22038296     0.16900
C1048       C  0.06443214  0.85399243  0.23087132    -0.30500
N1049       N  0.06619527  0.82900256  0.25817252     0.13700
C1050       C  0.09134615  0.82842336  0.28551829    -0.30500
C1051       C  0.10239167  0.93491454  0.30676373    -0.30800
N1052       N  0.11583561  0.93479884  0.35686661     0.14200
H1053       H  0.08823524  0.95120302  0.29244438     0.16800
C1054       C  0.13105197  0.91083820  0.36056173    -0.30800
H1055       H  0.14466900  0.90559012  0.39522789     0.16800
H1056       H  0.09879014  0.81136791  0.31137619     0.16800
H1057       H  0.13830216  0.90250176  0.11386609     0.16900
H1058       H  0.04627719  0.86054470  0.20672029     0.16800
O1059       O  0.02089216  0.51585202  0.11748627    -0.79400
O1060       O  0.46070964  0.54644568  0.94276345    -0.79500
O1061       O  0.06085749  0.52869169  0.96915742    -0.79500
O1062       O  0.46233747  0.54343761  0.04675881    -0.79400
O1063       O  0.02047641  0.54788428  0.94282499    -0.79500
O1064       O  0.46455908  0.51569535  0.11866766    -0.79500
O1065       O  0.42096791  0.52762773  0.97329101    -0.79400
O1066       O  0.02101941  0.54305630  0.04511277    -0.79500
C1067       C  0.02585906  0.53942804  0.09574850     1.10300
C1068       C  0.43370094  0.54469001  0.94225346     1.10100
C1069       C  0.04753330  0.54640490  0.93962161     1.10300
C1070       C  0.45842414  0.53915697  0.09752901     1.10200
O1071       O  0.46419952  0.95977508  0.07297000    -0.79400
O1072       O  0.01974846  0.99551269  0.88513594    -0.79500
O1073       O  0.05213331  0.99061583  0.05384695    -0.79500
O1074       O  0.44462682  0.97729202  0.96111337    -0.79400
O1075       O  0.46515115  0.99236484  0.88753420    -0.79500
O1076       O  0.01981735  0.95968184  0.07048364    -0.79500
O1077       O  0.43180757  0.99122516  0.05729291    -0.79400
O1078       O  0.03782788  0.97707039  0.95806692    -0.79500
Co1079     Co  0.49242132  0.48794587  0.08984390     1.51500
Co1080     Co  0.49141503  0.51844179  0.92407226     1.51700
Co1081     Co  0.02865788  0.51076480  0.99793494     1.51600
Co1082     Co  0.45429147  0.51081743  0.99997918     1.51500
O1083       O  0.49175309  0.49730707  0.00668148    -1.41400
C1084       C  0.43875929  0.96701203  0.07303599     1.10200
C1085       C  0.03462592  0.97704030  0.90714747     1.10300
C1086       C  0.04521083  0.96639607  0.06939735     1.10200
C1087       C  0.44953076  0.97511245  0.91097750     1.10200
O1088       O  0.28743216  0.72734368  0.43893758    -0.79400
O1089       O  0.26363343  0.82184130  0.54050112    -0.79500
O1090       O  0.25401518  0.78472848  0.38771966    -0.79500
O1091       O  0.25350068  0.72927285  0.61164235    -0.79400
O1092       O  0.28239523  0.78643536  0.46082621    -0.79500
O1093       O  0.28490739  0.72961328  0.54753036    -0.79500
O1094       O  0.26607783  0.78218988  0.58883273    -0.79400
O1095       O  0.25548549  0.72977011  0.37325208    -0.79500
C1096       C  0.28044136  0.72422583  0.38919434     1.10300
C1097       C  0.27357322  0.80767616  0.58064943     1.10100
C1098       C  0.27707603  0.79224720  0.41061083     1.10300
C1099       C  0.27789513  0.72295689  0.59542172     1.10200
O1100       O  0.23204590  0.69706943  0.54511777    -0.79400
O1101       O  0.22804734  0.81190149  0.45568223    -0.79500
O1102       O  0.20294769  0.72389956  0.43307155    -0.79500
O1103       O  0.21560406  0.77002477  0.63280411    -0.79400
O1104       O  0.21418711  0.79639628  0.55625284    -0.79500
O1105       O  0.23691657  0.69304759  0.43549214    -0.79500
O1106       O  0.20086405  0.73139587  0.55402650    -0.79400
O1107       O  0.19886858  0.77815687  0.44274088    -0.79500
Co1108     Co  0.26061252  0.71325969  0.49231059     1.51500
Co1109     Co  0.25002586  0.78882217  0.50950426     1.51700
Co1110     Co  0.22741209  0.75414213  0.41216374     1.51600
Co1111     Co  0.23182282  0.75721465  0.56652792     1.51500
O1112       O  0.24234889  0.75019405  0.48841739    -1.41400
C1113       C  0.20737392  0.70585077  0.55782776     1.10200
C1114       C  0.20500110  0.80309827  0.43688932     1.10300
C1115       C  0.21200812  0.70007748  0.42167286     1.10200
C1116       C  0.20675894  0.79129107  0.60656240     1.10200
C1117       C  0.08634109  0.95893675  0.12656622    -0.11600
C1118       C  0.06527686  0.94743022  0.09405808     0.05400
C1119       C  0.05962375  0.91879861  0.09731641    -0.06900
C1120       C  0.07224127  0.90307543  0.13873876    -0.07600
C1121       C  0.08949700  0.91558679  0.17858617    -0.02200
C1122       C  0.09902213  0.94327574  0.16828941     0.04700
N1123       N  0.12155223  0.95606156  0.19840674     0.67200
H1124       H  0.09177668  0.98073748  0.12203191     0.16100
H1125       H  0.06887059  0.88092580  0.13820650     0.15800
N1126       N  0.04017992  0.90556508  0.06071405     0.74900
O1127       O  0.14656159  0.94842199  0.18911724    -0.38600
O1128       O  0.11747571  0.98001559  0.21826272    -0.38500
O1129       O  0.04960305  0.89311627  0.01865041    -0.39200
O1130       O  0.01641938  0.89873847  0.07937500    -0.39300
C1131       C  0.16769910  0.82707464  0.30980397    -0.11600
C1132       C  0.15006557  0.84740897  0.33201318     0.05400
C1133       C  0.14734914  0.84898385  0.39074371    -0.06900
C1134       C  0.16829195  0.83711728  0.42383553    -0.07600
C1135       C  0.18797837  0.81948473  0.40019138    -0.02200
C1136       C  0.18659641  0.81292818  0.34331451     0.04700
N1137       N  0.20128342  0.78969612  0.32029107     0.67200
H1138       H  0.16604937  0.82120862  0.26659282     0.16100
H1139       H  0.16729972  0.83886612  0.46871485     0.15800
N1140       N  0.12200851  0.85819901  0.41751355     0.74900
O1141       O  0.18810240  0.76715164  0.31671300    -0.38600
O1142       O  0.22118149  0.79390445  0.28682953    -0.38500
O1143       O  0.09854277  0.84928271  0.40066786    -0.39200
O1144       O  0.12350868  0.86818336  0.46585690    -0.39300
C1145       C  0.14275111  0.67788519  0.62722741    -0.11600
C1146       C  0.15516275  0.66083435  0.66843259     0.05400
C1147       C  0.18423923  0.65365718  0.66276326    -0.06900
C1148       C  0.20042805  0.66779917  0.62371841    -0.07600
C1149       C  0.18833743  0.68730090  0.58756765    -0.02200
C1150       C  0.15900940  0.69128855  0.58723914     0.04700
N1151       N  0.14531272  0.70739885  0.54466881     0.67200
H1152       H  0.12014542  0.67980842  0.62378845     0.16100
H1153       H  0.22292494  0.66382015  0.62228598     0.15800
N1154       N  0.19797937  0.63207918  0.69478740     0.74900
O1155       O  0.14655146  0.69926988  0.49496335    -0.38600
O1156       O  0.12709610  0.72542173  0.55769783    -0.38500
O1157       O  0.18722879  0.60818044  0.69835725    -0.39200
O1158       O  0.22342183  0.63503628  0.70915024    -0.39300
C1159       C  0.04534465  0.58041614  0.86307781    -0.11600
C1160       C  0.06198410  0.56472030  0.90047859     0.05400
C1161       C  0.09122004  0.56290927  0.89220582    -0.06900
C1162       C  0.10296037  0.57674029  0.84738841    -0.07600
C1163       C  0.08710053  0.59591769  0.81559439    -0.02200
C1164       C  0.05747843  0.59520523  0.81940388     0.04700
N1165       N  0.03952344  0.60525600  0.77546502     0.67200
H1166       H  0.02255929  0.57980128  0.86539631     0.16100
H1167       H  0.12519953  0.57361117  0.83954311     0.15800
N1168       N  0.10944322  0.54781954  0.92932361     0.74900
O1169       O  0.04365612  0.59693470  0.72650647    -0.38600
O1170       O  0.01612284  0.61642184  0.78701125    -0.38500
O1171       O  0.12162707  0.52593547  0.91298886    -0.39200
O1172       O  0.11806551  0.55952785  0.97298588    -0.39300
C1173       C  0.42487127  0.60513995  0.14799723    -0.11600
C1174       C  0.40284345  0.59447385  0.18048294     0.05400
C1175       C  0.39720545  0.56568175  0.17717513    -0.06900
C1176       C  0.41719750  0.54797362  0.15410426    -0.07600
C1177       C  0.44116940  0.55864682  0.12840052    -0.02200
C1178       C  0.44459274  0.58752143  0.12363837     0.04700
N1179       N  0.46828530  0.59923733  0.09573219     0.67200
H1180       H  0.42636109  0.62705166  0.13913119     0.16100
H1181       H  0.41297036  0.52585860  0.15279791     0.15800
N1182       N  0.37038244  0.55438103  0.19155911     0.74900
O1183       O  0.46529858  0.60867936  0.04703249    -0.38600
O1184       O  0.48959638  0.60618475  0.12387152    -0.38500
O1185       O  0.35021804  0.55714533  0.15760702    -0.39200
O1186       O  0.36952035  0.53458366  0.22594348    -0.39300
C1187       C  0.34420132  0.68497517  0.34815403    -0.11600
C1188       C  0.33244168  0.66376173  0.31600747     0.05400
C1189       C  0.30276778  0.66120771  0.31458463    -0.06900
C1190       C  0.28626829  0.68360416  0.33160993    -0.07600
C1191       C  0.29869070  0.70689415  0.35602440    -0.02200
C1192       C  0.32796036  0.70742289  0.36491718     0.04700
N1193       N  0.34148852  0.73080542  0.38995076     0.67200
H1194       H  0.36618742  0.68442250  0.35985719     0.16100
H1195       H  0.26351977  0.68151786  0.33117295     0.15800
N1196       N  0.28915216  0.63524649  0.30300543     0.74900
O1197       O  0.34979477  0.72921654  0.43974547    -0.38600
O1198       O  0.35114984  0.74973609  0.35901143    -0.38500
O1199       O  0.29556128  0.61410080  0.33179916    -0.39200
O1200       O  0.26595025  0.63532582  0.27714135    -0.39300
C1201       C  0.31570766  0.82789623  0.70584631    -0.11600
C1202       C  0.33505545  0.84627490  0.68190319     0.05400
C1203       C  0.33832654  0.84577792  0.62333037    -0.06900
C1204       C  0.31727580  0.83371636  0.59097938    -0.07600
C1205       C  0.29504097  0.81962178  0.61603604    -0.02200
C1206       C  0.29503495  0.81540981  0.67378136     0.04700
N1207       N  0.27338076  0.80001389  0.70098427     0.67200
H1208       H  0.31629116  0.82325032  0.74972510     0.16100
H1209       H  0.31888205  0.83422946  0.54604214     0.15800
N1210       N  0.36357231  0.85480788  0.59627685     0.74900
O1211       O  0.25257636  0.81301770  0.72070802    -0.38600
O1212       O  0.27906643  0.77605782  0.71964586    -0.38500
O1213       O  0.38669643  0.84336949  0.60925145    -0.39200
O1214       O  0.36167322  0.86690142  0.54971790    -0.39300
C1215       C  0.43053841  0.91800479  0.81320207    -0.11600
C1216       C  0.40103864  0.91804597  0.81904238     0.05400
C1217       C  0.38817997  0.93952631  0.85062559    -0.06900
C1218       C  0.40491291  0.95581635  0.88434761    -0.07600
C1219       C  0.43409767  0.95477423  0.87986942    -0.02200
C1220       C  0.44714955  0.93615792  0.84364500     0.04700
N1221       N  0.47711154  0.93445836  0.83956702     0.67200
H1222       H  0.44089161  0.90475753  0.78342267     0.16100
H1223       H  0.39507071  0.97124478  0.91074717     0.15800
N1224       N  0.35911125  0.94749952  0.84438668     0.74900
O1225       O  0.49018884  0.91645262  0.86822108    -0.38600
O1226       O  0.48935365  0.94598118  0.79918450    -0.38500
O1227       O  0.34452840  0.95226813  0.88708470    -0.39200
O1228       O  0.35078215  0.95739854  0.79853409    -0.39300
C1229       C  0.42448022  0.59194019  0.91164900    -0.11600
C1230       C  0.41843528  0.56372190  0.90746378     0.05400
C1231       C  0.40151308  0.55376033  0.86445829    -0.06900
C1232       C  0.39189539  0.57209988  0.82445620    -0.07600
C1233       C  0.39984938  0.60024167  0.82466904    -0.02200
C1234       C  0.41415993  0.61063068  0.87224290     0.04700
N1235       N  0.41569008  0.63965590  0.88506195     0.67200
H1236       H  0.43666782  0.59952559  0.94659353     0.15100
H1237       H  0.37698094  0.56410109  0.79464231     0.15800
N1238       N  0.39507776  0.52492283  0.85877315     0.74900
O1239       O  0.43938922  0.65021780  0.89578917    -0.38600
O1240       O  0.39383371  0.65191347  0.90212511    -0.38500
O1241       O  0.37115673  0.51654763  0.87399261    -0.39200
O1242       O  0.40864185  0.51085056  0.82362465    -0.39300
C1243       C  0.30018067  0.70975983  0.68309206    -0.11600
C1244       C  0.29648237  0.70497700  0.62676004     0.05400
C1245       C  0.31303418  0.68493588  0.59922350    -0.06900
C1246       C  0.33255396  0.66954690  0.62912267    -0.07600
C1247       C  0.33455972  0.67223434  0.68665878    -0.02200
C1248       C  0.32024066  0.69468979  0.71285979     0.04700
N1249       N  0.32768664  0.70444253  0.76708463     0.67200
H1250       H  0.28861979  0.72624375  0.70331100     0.16100
H1251       H  0.34648436  0.65601081  0.60649119     0.15800
N1252       N  0.30960955  0.67920103  0.54130197     0.74900
O1253       O  0.30876079  0.70663838  0.80350347    -0.38600
O1254       O  0.34907263  0.71968970  0.77143161    -0.38500
O1255       O  0.32898589  0.68562001  0.50799436    -0.39200
O1256       O  0.29094953  0.66221478  0.52607102    -0.39300
C1257       C  0.08776238  0.94855591  0.81134057    -0.11600
C1258       C  0.08636996  0.91984929  0.82219486     0.05400
C1259       C  0.07005506  0.91073448  0.86785575    -0.06900
C1260       C  0.05204050  0.92967799  0.89353082    -0.07600
C1261       C  0.05014677  0.95720090  0.87456613    -0.02200
C1262       C  0.06794101  0.96665502  0.83256988     0.04700
N1263       N  0.06682301  0.99469272  0.81227669     0.67200
H1264       H  0.10415989  0.95727686  0.78581140     0.16100
H1265       H  0.03998672  0.92315279  0.92936210     0.15800
N1266       N  0.07410278  0.88402143  0.89344583     0.74900
O1267       O  0.08728627  0.01066862  0.82139786    -0.38600
O1268       O  0.04952348  0.50075967  0.77382894    -0.38500
O1269       O  0.09540377  0.88048764  0.92418688    -0.39200
O1270       O  0.05300918  0.86864123  0.90136307    -0.39300
C1271       C  0.20100531  0.83540738  0.65369844    -0.11600
C1272       C  0.18874413  0.81125705  0.63290325     0.05400
C1273       C  0.15953847  0.80909710  0.62915020    -0.06900
C1274       C  0.14296436  0.82998897  0.65138172    -0.07600
C1275       C  0.15505835  0.85086247  0.68406620    -0.02200
C1276       C  0.18439320  0.85560130  0.67911654     0.04700
N1277       N  0.19737389  0.88112853  0.69579425     0.67200
H1278       H  0.22341703  0.83883479  0.64902988     0.16100
H1279       H  0.12066330  0.82970782  0.64277346     0.15800
N1280       N  0.14644112  0.78558410  0.60427839     0.74900
O1281       O  0.22023317  0.88013425  0.72275326    -0.38600
O1282       O  0.19120794  0.90327046  0.66992625    -0.38500
O1283       O  0.13595769  0.76716539  0.63538936    -0.39200
O1284       O  0.13936926  0.78667076  0.55370868    -0.39300
C1285       C  0.32492009  0.80943495  0.39412528    -0.11600
C1286       C  0.29603243  0.81117400  0.38206941     0.05400
C1287       C  0.28560613  0.83394250  0.35079148    -0.06900
C1288       C  0.30439355  0.85255464  0.32786443    -0.07600
C1289       C  0.33343676  0.84827408  0.33223618    -0.02200
C1290       C  0.34366215  0.82870141  0.37167794     0.04700
N1291       N  0.37124517  0.83084245  0.39582833     0.67200
H1292       H  0.33267540  0.79402779  0.42361325     0.16100
H1293       H  0.29602570  0.87046532  0.30559653     0.15800
N1294       N  0.25623247  0.84012203  0.34516879     0.74900
O1295       O  0.38531457  0.80901989  0.40633829    -0.38600
O1296       O  0.37803842  0.85317139  0.41967923    -0.38500
O1297       O  0.24421620  0.85263211  0.38451855    -0.39200
O1298       O  0.24616690  0.84301725  0.29682618    -0.39300
C1299       C  0.41174974  0.90405764  0.14163435    -0.11600
C1300       C  0.39593672  0.91666212  0.18388491     0.05400
C1301       C  0.38630654  0.94446063  0.17474421    -0.06900
C1302       C  0.39877323  0.96050370  0.13370940    -0.07600
C1303       C  0.41863521  0.94870511  0.09870629    -0.02200
C1304       C  0.42302175  0.91985706  0.09900112     0.04700
N1305       N  0.43763141  0.90628577  0.05492053     0.67200
H1306       H  0.41410466  0.88174826  0.13933426     0.16100
H1307       H  0.39341483  0.98239555  0.13020498     0.15800
N1308       N  0.36307353  0.95646662  0.20390663     0.74900
O1309       O  0.46068345  0.89411717  0.06516380    -0.38600
O1310       O  0.42415161  0.89996923  0.01149724    -0.38500
O1311       O  0.36635341  0.97985100  0.22635517    -0.39200
O1312       O  0.33837030  0.94874328  0.19241033    -0.39300
C1313       C  0.17935851  0.69974981  0.34414389    -0.11600
C1314       C  0.19529678  0.68420393  0.38243936     0.05400
C1315       C  0.19560566  0.65521218  0.37922375    -0.06900
C1316       C  0.17801954  0.64251183  0.34062240    -0.07600
C1317       C  0.15828797  0.65832095  0.30915943    -0.02200
C1318       C  0.16190413  0.68733523  0.30553969     0.04700
N1319       N  0.14979868  0.70434026  0.26194923     0.67200
H1320       H  0.18087114  0.72194274  0.34376430     0.16100
H1321       H  0.17917837  0.62010591  0.33691231     0.15800
N1322       N  0.21138547  0.63849634  0.41769407     0.74900
O1323       O  0.14408604  0.72963475  0.27095167    -0.38600
O1324       O  0.14925624  0.69573729  0.21251067    -0.38500
O1325       O  0.19958849  0.62984662  0.46134461    -0.39200
O1326       O  0.23438054  0.62763097  0.40273429    -0.39300
C1327       C  0.05609996  0.58112272  0.09608772    -0.11600
C1328       C  0.04057079  0.56137717  0.12631636     0.05400
C1329       C  0.04026908  0.56281632  0.18443669    -0.06900
C1330       C  0.05710852  0.58226540  0.21096149    -0.07600
C1331       C  0.07706022  0.59799835  0.18139810    -0.02200
C1332       C  0.07383269  0.60005655  0.12289208     0.04700
N1333       N  0.08685694  0.62164231  0.09034082     0.67200
H1334       H  0.05475385  0.58161284  0.05114573     0.16100
H1335       H  0.05484859  0.58444856  0.25534003     0.15800
N1336       N  0.02364548  0.54434196  0.21730715     0.74900
O1337       O  0.09286781  0.61732736  0.04003174    -0.38600
O1338       O  0.08816121  0.64619552  0.10855169    -0.38500
O1339       O  0.03511942  0.52298935  0.23851617    -0.39200
O1340       O  0.00012230  0.55253297  0.23541460    -0.39300
C1341       C  0.59943339  0.11345528  0.21425416     0.30700
C1342       C  0.63581209  0.14338510  0.27706297     0.30700
C1343       C  0.62895729  0.11868904  0.18759709    -0.05500
C1344       C  0.58914212  0.14286472  0.23081241    -0.06300
C1345       C  0.60782420  0.10015644  0.27160227    -0.06200
C1346       C  0.64700285  0.13414321  0.22032198    -0.05500
C1347       C  0.60734251  0.15819486  0.26355723    -0.06300
C1348       C  0.62555754  0.11610757  0.30399820    -0.06200
C1349       C  0.67191384  0.13792963  0.19169575    -0.31500
N1350       N  0.67016188  0.12514258  0.14165559     0.15000
C1351       C  0.64419609  0.11278276  0.13921029    -0.31600
H1352       H  0.63694867  0.10048612  0.10454049     0.16900
C1353       C  0.59272527  0.18242836  0.27790052    -0.30500
N1354       N  0.56692850  0.18280722  0.25239108     0.13700
C1355       C  0.56458806  0.15839798  0.22410571    -0.30500
C1356       C  0.62864953  0.10279260  0.35503111    -0.30800
N1357       N  0.61477182  0.07823327  0.35387895     0.14200
H1358       H  0.64030972  0.11023771  0.39064648     0.16800
C1359       C  0.60242727  0.07615705  0.30278649    -0.30800
H1360       H  0.59049048  0.05824445  0.28950992     0.16800
H1361       H  0.54622617  0.15221799  0.20043798     0.16800
H1362       H  0.68980611  0.14990720  0.20581745     0.16900
H1363       H  0.60001160  0.19838567  0.30595241     0.16800
N1364       N  0.99384592  0.21306365  0.24932803    -0.35900
N1365       N  0.53759798  0.25593901  0.25910732    -0.56500
N1366       N  0.99348432  0.29916225  0.25300967    -0.35900
N1367       N  0.94975027  0.25619089  0.25335928    -0.56500
C1368       C  0.51690221  0.19768097  0.26406872     0.27700
C1369       C  0.97059787  0.19776651  0.26151908     0.27700
C1370       C  0.51640684  0.31420445  0.26821351     0.27700
C1371       C  0.97021195  0.31435366  0.26619477     0.27700
C1372       C  0.55366653  0.23329482  0.24652084     0.36300
C1373       C  0.55345514  0.27882909  0.24825329     0.36300
C1374       C  0.93414643  0.23364424  0.23890142     0.36300
C1375       C  0.93396502  0.27924464  0.24146600     0.36300
C1376       C  0.50818796  0.17258127  0.28656842    -0.21200
C1377       C  0.97910782  0.17269594  0.28530961    -0.21200
C1378       C  0.50758952  0.33898218  0.29188831    -0.21200
C1379       C  0.97853144  0.33904284  0.29079850    -0.21200
C1380       C  0.57962126  0.24191548  0.22710324    -0.22300
C1381       C  0.57956829  0.27062057  0.22846259    -0.22200
C1382       C  0.90857000  0.24256612  0.21685423    -0.22300
C1383       C  0.90840363  0.27128245  0.21877043    -0.22200
C1384       C  0.54557782  0.20497774  0.25456863    -0.17600
C1385       C  0.94206768  0.20521591  0.24873683    -0.17600
C1386       C  0.94177785  0.30726266  0.25363432    -0.17600
C1387       C  0.54503792  0.30696427  0.25807922    -0.17600
H1388       H  0.52140552  0.15589632  0.30253116     0.15300
H1389       H  0.96581852  0.15611772  0.30049562     0.15300
H1390       H  0.52072205  0.35536023  0.30837985     0.15300
H1391       H  0.96511758  0.35548690  0.30646918     0.15300
H1392       H  0.59664733  0.22892187  0.21232716     0.13600
H1393       H  0.59668718  0.28387796  0.21539207     0.13600
H1394       H  0.89173922  0.22980781  0.20068512     0.13600
H1395       H  0.89144313  0.28474057  0.20457261     0.13600
H1396       H  0.99406087  0.23158415  0.22671301     0.26900
H1397       H  0.99378821  0.28103632  0.22955344     0.26900
C1398       C  0.85180783  0.36520154  0.29425391     0.30700
C1399       C  0.88253721  0.39814145  0.22648824     0.30700
C1400       C  0.83868141  0.37130235  0.23585994    -0.05500
C1401       C  0.85885413  0.39441417  0.31761929    -0.06300
C1402       C  0.88089219  0.35300238  0.27768496    -0.06200
C1403       C  0.85438623  0.38837466  0.20250595    -0.05500
C1404       C  0.87499704  0.41107934  0.28347129    -0.06300
C1405       C  0.89711662  0.37010348  0.24386165    -0.06200
C1406       C  0.84079271  0.39095605  0.15159938    -0.31500
N1407       N  0.81685304  0.37571681  0.15243775     0.15000
C1408       C  0.81564609  0.36312740  0.20343626    -0.31600
H1409       H  0.79912665  0.34898956  0.21579529     0.16900
C1410       C  0.88097535  0.43518660  0.31329314    -0.30500
N1411       N  0.86785066  0.43431794  0.36361143     0.13700
C1412       C  0.85441844  0.40921888  0.36658590    -0.30500
C1413       C  0.92166929  0.35511898  0.23222540    -0.30800
N1414       N  0.92014117  0.32913731  0.25536403     0.14200
H1415       H  0.93939283  0.36237339  0.20817521     0.16800
C1416       C  0.89495464  0.32759317  0.28197067    -0.30800
H1417       H  0.88714936  0.30894097  0.30168174     0.16800
H1418       H  0.84244540  0.40205272  0.40199522     0.16800
H1419       H  0.84772046  0.40336279  0.11660586     0.16900
H1420       H  0.89446931  0.45195930  0.29979731     0.16800
N1421       N  0.61253187  0.00673014  0.41410497    -0.35900
N1422       N  0.61576669  0.04933318  0.49946789    -0.56500
N1423       N  0.61367660  0.00578591  0.58570961    -0.35900
N1424       N  0.61539122  0.46323697  0.50011828    -0.56500
C1425       C  0.62058480  0.02932975  0.38442857     0.27700
C1426       C  0.62075264  0.48394393  0.38529008     0.27700
C1427       C  0.62075552  0.02843611  0.61618585     0.27700
C1428       C  0.62046789  0.48268338  0.61596056     0.27700
C1429       C  0.60973301  0.06538358  0.45418094     0.36300
C1430       C  0.61033377  0.06504901  0.54495760     0.36300
C1431       C  0.60798830  0.44837719  0.45472389     0.36300
C1432       C  0.60906275  0.44728350  0.54491862     0.36300
C1433       C  0.63440044  0.02079993  0.33679351    -0.21200
C1434       C  0.63475953  0.49209043  0.33774272    -0.21200
C1435       C  0.63230766  0.01958342  0.66635675    -0.21200
C1436       C  0.63208951  0.49082133  0.66622930    -0.21200
C1437       C  0.60017069  0.09127762  0.47104245    -0.22300
C1438       C  0.60054617  0.09107330  0.52832923    -0.22200
C1439       C  0.59630280  0.42331335  0.47072556    -0.22300
C1440       C  0.59733256  0.42240398  0.52796762    -0.22200
C1441       C  0.61455353  0.05736055  0.39808036    -0.17600
C1442       C  0.61432206  0.45610503  0.39934929    -0.17600
C1443       C  0.61499197  0.45454212  0.60066587    -0.17600
C1444       C  0.61582395  0.05682799  0.60107082    -0.17600
H1445       H  0.64365553  0.03388001  0.30507889     0.15300
H1446       H  0.64464247  0.47864934  0.30758342     0.15300
H1447       H  0.64024862  0.03243702  0.69966201     0.15300
H1448       H  0.63974313  0.47747289  0.69945153     0.15300
H1449       H  0.59354082  0.10854549  0.44494580     0.13600
H1450       H  0.59418141  0.10817698  0.55461891     0.13600
H1451       H  0.58796099  0.40738066  0.44375732     0.13600
H1452       H  0.59006654  0.40551653  0.55407558     0.13600
H1453       H  0.59945547  0.00683160  0.44906010     0.26900
H1454       H  0.60213574  0.00614082  0.54849198     0.26900
N1455       N  0.87145959  0.00748808  0.41932475    -0.35900
N1456       N  0.86754791  0.46492731  0.50693134    -0.56500
N1457       N  0.87031194  0.00892434  0.59176656    -0.35900
N1458       N  0.86834136  0.05162945  0.50395919    -0.56500
C1459       C  0.86279295  0.48446632  0.39104499     0.27700
C1460       C  0.86340367  0.03031222  0.38913203     0.27700
C1461       C  0.86344338  0.48622544  0.62308791     0.27700
C1462       C  0.86389842  0.03212394  0.62178631     0.27700
C1463       C  0.87429607  0.44892070  0.46246516     0.36300
C1464       C  0.87431151  0.44984142  0.55300336     0.36300
C1465       C  0.87409714  0.06719383  0.45803290     0.36300
C1466       C  0.87339056  0.06801047  0.54881972     0.36300
C1467       C  0.84848373  0.49283273  0.34360085    -0.21200
C1468       C  0.84893608  0.02165639  0.34232576    -0.21200
C1469       C  0.85244593  0.49520328  0.67311578    -0.21200
C1470       C  0.85287765  0.02396842  0.67249961    -0.21200
C1471       C  0.88582234  0.42388657  0.48039368    -0.22300
C1472       C  0.88606142  0.42461244  0.53765546    -0.22200
C1473       C  0.88304149  0.09338704  0.47394527    -0.22300
C1474       C  0.88251710  0.09392906  0.53115161    -0.22200
C1475       C  0.86850477  0.45614839  0.40619249    -0.17600
C1476       C  0.86945239  0.05869551  0.40204868    -0.17600
C1477       C  0.86863669  0.06042287  0.60542320    -0.17600
C1478       C  0.86818788  0.45768890  0.60859528    -0.17600
H1479       H  0.83797069  0.47948880  0.31410944     0.15300
H1480       H  0.83879478  0.03484848  0.31155883     0.15300
H1481       H  0.84455935  0.48237074  0.70644081     0.15300
H1482       H  0.84553702  0.03736019  0.70549781     0.15300
H1483       H  0.89353782  0.40700814  0.45494348     0.13600
H1484       H  0.89427440  0.40855463  0.56504621     0.13600
H1485       H  0.88934881  0.11042503  0.44727568     0.13600
H1486       H  0.88841469  0.11144037  0.55670950     0.13600
H1487       H  0.88432268  0.00758262  0.45410065     0.26900
H1488       H  0.88099945  0.00858115  0.55472488     0.26900
C1489       C  0.60324876  0.40053835  0.78577027     0.30700
C1490       C  0.63644410  0.36773486  0.72183306     0.30700
C1491       C  0.63238936  0.39309231  0.81093691    -0.05500
C1492       C  0.59049986  0.37177181  0.77137124    -0.06300
C1493       C  0.61007173  0.41201914  0.72667806    -0.06200
C1494       C  0.64915553  0.37592384  0.77889562    -0.05500
C1495       C  0.60777213  0.35464892  0.73984198    -0.06300
C1496       C  0.62748949  0.39554332  0.69490749    -0.06200
C1497       C  0.67249132  0.36883596  0.81144261    -0.31500
N1498       N  0.67092571  0.38204305  0.86147709     0.15000
C1499       C  0.64643513  0.39706804  0.86120932    -0.31600
H1500       H  0.63919220  0.40976547  0.89535033     0.16900
C1501       C  0.59339691  0.32962223  0.73349589    -0.30500
N1502       N  0.56740461  0.33150257  0.75675272     0.13700
C1503       C  0.56542707  0.35742039  0.77956867    -0.30500
C1504       C  0.63065721  0.40874485  0.64364655    -0.30800
N1505       N  0.61546089  0.43290618  0.64342856     0.14200
H1506       H  0.64321051  0.40136668  0.60924036     0.16800
C1507       C  0.60180541  0.43426161  0.69272352    -0.30800
H1508       H  0.58659442  0.45037796  0.70223720     0.16800
H1509       H  0.54682372  0.36550277  0.79966008     0.16800
H1510       H  0.68917213  0.35454432  0.80006193     0.16900
H1511       H  0.60108693  0.31098870  0.71360698     0.16800
N1512       N  0.53874609  0.25860347  0.74724397    -0.35900
N1513       N  0.99440669  0.30133269  0.75491770    -0.56500
N1514       N  0.95151610  0.25781398  0.74380933    -0.35900
N1515       N  0.99569425  0.21500144  0.74658970    -0.56500
C1516       C  0.55376906  0.28128025  0.76333648     0.27700
C1517       C  0.55455931  0.23548528  0.75873134     0.27700
C1518       C  0.93591803  0.28009877  0.76029333     0.27700
C1519       C  0.93688743  0.23453492  0.75738303     0.27700
C1520       C  0.51714996  0.31752784  0.74420187     0.36300
C1521       C  0.97117935  0.31690681  0.74259288     0.36300
C1522       C  0.51891569  0.19963030  0.73443344     0.36300
C1523       C  0.97301126  0.19919205  0.73342398     0.36300
C1524       C  0.57925927  0.27227839  0.78579687    -0.21200
C1525       C  0.57983036  0.24355504  0.78248030    -0.21200
C1526       C  0.91134024  0.27088288  0.78487386    -0.21200
C1527       C  0.91221873  0.24218342  0.78376553    -0.21200
C1528       C  0.50821467  0.34323319  0.72410307    -0.22300
C1529       C  0.97920900  0.34288078  0.72337527    -0.22200
C1530       C  0.51087815  0.17418584  0.71273666    -0.22300
C1531       C  0.98186159  0.17389306  0.71218322    -0.22200
C1532       C  0.54573371  0.30984320  0.75512316    -0.17600
C1533       C  0.54718680  0.20738398  0.74648001    -0.17600
C1534       C  0.94455826  0.20664466  0.74425940    -0.17600
C1535       C  0.94286236  0.30853007  0.75177818    -0.17600
H1536       H  0.59581791  0.28501328  0.80310774     0.15300
H1537       H  0.59686721  0.23013625  0.79648023     0.15300
H1538       H  0.89482012  0.28349436  0.80296864     0.15300
H1539       H  0.89697475  0.22840084  0.80211297     0.15300
H1540       H  0.52112901  0.36044827  0.71060845     0.13600
H1541       H  0.96563941  0.35978417  0.70968849     0.13600
H1542       H  0.52447274  0.15749727  0.69874613     0.13600
H1543       H  0.96883095  0.15694874  0.69782438     0.13600
H1544       H  0.52003182  0.25902798  0.72470049     0.26900
H1545       H  0.96967268  0.25856513  0.71983486     0.26900
C1546       C  0.85219889  0.15173180  0.71893629     0.30700
C1547       C  0.88505262  0.11880058  0.78372143     0.30700
C1548       C  0.85989519  0.12276692  0.69297059    -0.05500
C1549       C  0.88124184  0.16380564  0.73462006    -0.06300
C1550       C  0.83916536  0.14291476  0.77474842    -0.06200
C1551       C  0.87760979  0.10637571  0.72580060    -0.05500
C1552       C  0.89829341  0.14690973  0.76726002    -0.06300
C1553       C  0.85616445  0.12661775  0.80781445    -0.06200
C1554       C  0.88344950  0.08217896  0.69607925    -0.31500
N1555       N  0.86842148  0.08228172  0.64778889     0.15000
C1556       C  0.85354029  0.10669505  0.64614758    -0.31600
H1557       H  0.83863199  0.11179127  0.61351409     0.16900
C1558       C  0.92418132  0.16013936  0.77144227    -0.30500
N1559       N  0.92283107  0.18520974  0.74467308     0.13700
C1560       C  0.89673410  0.18725720  0.72102670    -0.30500
C1561       C  0.84132309  0.12051151  0.85579607    -0.30800
N1562       N  0.81547979  0.13282479  0.85282805     0.14200
H1563       H  0.84883502  0.10798562  0.89040425     0.16800
C1564       C  0.81368413  0.14577749  0.80242554    -0.30800
H1565       H  0.79512112  0.15655052  0.78707844     0.16800
H1566       H  0.88958091  0.20450520  0.69537102     0.16800
H1567       H  0.89763944  0.06555378  0.70863627     0.16900
H1568       H  0.94283637  0.15198043  0.79180194     0.16800
N1569       N  0.74376971  0.37466460  0.09321173    -0.35900
N1570       N  0.78762252  0.37737968  0.00676920    -0.56500
N1571       N  0.74383456  0.37731894  0.92122607    -0.35900
N1572       N  0.69997262  0.37978224  0.00769115    -0.56500
C1573       C  0.76701310  0.38100857  0.12356157     0.27700
C1574       C  0.72091773  0.38176171  0.12395702     0.27700
C1575       C  0.76697379  0.38447337  0.89127791     0.27700
C1576       C  0.72076530  0.38608781  0.89217585     0.27700
C1577       C  0.80359456  0.37108649  0.05229277     0.36300
C1578       C  0.80372865  0.37216829  0.96124085     0.36300
C1579       C  0.68404149  0.37311134  0.05266077     0.36300
C1580       C  0.68397786  0.37490598  0.96173017     0.36300
C1581       C  0.75880265  0.39261224  0.17361813    -0.21200
C1582       C  0.72980170  0.39313905  0.17381404    -0.21200
C1583       C  0.75840310  0.39832693  0.84336829    -0.21200
C1584       C  0.72935339  0.39943419  0.84413575    -0.21200
C1585       C  0.82984844  0.36169554  0.03553632    -0.22300
C1586       C  0.82988862  0.36222245  0.97819209    -0.22200
C1587       C  0.65796436  0.36367181  0.03491832    -0.22300
C1588       C  0.65801028  0.36474422  0.97758193    -0.22200
C1589       C  0.79541248  0.37531699  0.10871454    -0.17600
C1590       C  0.69231548  0.37694773  0.10934531    -0.17600
C1591       C  0.69213895  0.38083298  0.90592363    -0.17600
C1592       C  0.79554662  0.37788550  0.90495831    -0.17600
H1593       H  0.77225938  0.40018450  0.20659321     0.15300
H1594       H  0.71682559  0.40126732  0.20689004     0.15300
H1595       H  0.77167768  0.40710620  0.81140351     0.15300
H1596       H  0.71599703  0.40927356  0.81312815     0.15300
H1597       H  0.84719342  0.35501002  0.06184287     0.13600
H1598       H  0.84726299  0.35585210  0.95216670     0.13600
H1599       H  0.64078921  0.35636298  0.06044141     0.13600
H1600       H  0.64115792  0.35810412  0.95055685     0.13600
H1601       H  0.74352502  0.36348837  0.05615417     0.26900
H1602       H  0.74365409  0.36458337  0.95648506     0.26900
N1603       N  0.74340216  0.13045497  0.08290998    -0.35900
N1604       N  0.78686284  0.13078205  0.99732510    -0.56500
N1605       N  0.74286746  0.13647397  0.91188520    -0.35900
N1606       N  0.69936021  0.13099870  0.99704462    -0.56500
C1607       C  0.76696133  0.12351451  0.11255260     0.27700
C1608       C  0.72058103  0.12178349  0.11232848     0.27700
C1609       C  0.76558646  0.12832865  0.88183480     0.27700
C1610       C  0.71956117  0.13009353  0.88180206     0.27700
C1611       C  0.80292391  0.13643360  0.04263356     0.36300
C1612       C  0.80234658  0.13786029  0.95224398     0.36300
C1613       C  0.68344311  0.13461201  0.04322107     0.36300
C1614       C  0.68351556  0.13972369  0.95303486     0.36300
C1615       C  0.75902628  0.10999780  0.16088046    -0.21200
C1616       C  0.72989304  0.10897415  0.16088813    -0.21200
C1617       C  0.75657989  0.11623051  0.83280987    -0.21200
C1618       C  0.72754356  0.11716155  0.83307283    -0.21200
C1619       C  0.82850589  0.14741465  0.02627745    -0.22300
C1620       C  0.82806024  0.14842983  0.96910314    -0.22200
C1621       C  0.65758285  0.14602962  0.02847813    -0.22300
C1622       C  0.65763459  0.14930552  0.97152929    -0.22200
C1623       C  0.79533574  0.13022865  0.09827527    -0.17600
C1624       C  0.69161505  0.12670695  0.09813164    -0.17600
C1625       C  0.69136800  0.13670022  0.89631224    -0.17600
C1626       C  0.79417094  0.13306049  0.89625515    -0.17600
H1627       H  0.77285911  0.10147856  0.19262300     0.15300
H1628       H  0.71704772  0.09976325  0.19306560     0.15300
H1629       H  0.76954580  0.10735058  0.80047186     0.15300
H1630       H  0.71380859  0.10866817  0.80159454     0.15300
H1631       H  0.84564210  0.15418096  0.05267517     0.13600
H1632       H  0.84462555  0.15639729  0.94301204     0.13600
H1633       H  0.64056124  0.15179722  0.05587657     0.13600
H1634       H  0.64050872  0.15773070  0.94667433     0.13600
H1635       H  0.74288509  0.14299368  0.04754363     0.26900
H1636       H  0.74327256  0.14828972  0.94805067     0.26900
C1637       C  0.88383748  0.39804379  0.78542055     0.30700
C1638       C  0.85156545  0.36556198  0.71930758     0.30700
C1639       C  0.85573894  0.38849366  0.81158457    -0.05500
C1640       C  0.87529793  0.41105170  0.72914612    -0.06300
C1641       C  0.89726507  0.36973697  0.76907323    -0.06200
C1642       C  0.83855597  0.37275991  0.77748607    -0.05500
C1643       C  0.85839802  0.39497004  0.69549932    -0.06300
C1644       C  0.88072745  0.35335714  0.73497058    -0.06200
C1645       C  0.81405744  0.36776921  0.80831440    -0.31500
N1646       N  0.81679513  0.37833608  0.86068721     0.15000
C1647       C  0.84260370  0.39046803  0.86302031    -0.31600
H1648       H  0.85123395  0.40023495  0.89964314     0.16900
C1649       C  0.85281835  0.41113155  0.64817619    -0.30500
N1650       N  0.86684169  0.43590769  0.65148394     0.13700
C1651       C  0.88071495  0.43582732  0.70110647    -0.30500
C1652       C  0.89537369  0.32868121  0.72602447    -0.30800
N1653       N  0.92054892  0.32958615  0.75338909     0.14200
H1654       H  0.88825554  0.31136606  0.70111479     0.16800
C1655       C  0.92142273  0.35422135  0.78116396    -0.30800
H1656       H  0.93835589  0.36003341  0.80892557     0.16800
H1657       H  0.89405720  0.45249357  0.71572339     0.16800
H1658       H  0.79524891  0.35743617  0.79382857     0.16900
H1659       H  0.83948460  0.40533083  0.61364092     0.16800
C1660       C  0.88544496  0.11348729  0.21711185     0.30700
C1661       C  0.85155341  0.14629117  0.28001860     0.30700
C1662       C  0.87766859  0.10152651  0.27542835    -0.05500
C1663       C  0.89805529  0.14248801  0.23253621    -0.06300
C1664       C  0.85655681  0.12116631  0.19085951    -0.06200
C1665       C  0.86017590  0.11826903  0.30688605    -0.05500
C1666       C  0.88031573  0.15952911  0.26311331    -0.06300
C1667       C  0.83937335  0.13801603  0.22269854    -0.06200
C1668       C  0.85542198  0.10451103  0.35693877    -0.31500
N1669       N  0.86947239  0.07963883  0.35732425     0.15000
C1670       C  0.88362435  0.07802656  0.30809126    -0.31600
H1671       H  0.89773435  0.06115994  0.29731224     0.16900
C1672       C  0.89423022  0.18492241  0.26948245    -0.30500
N1673       N  0.92050698  0.18337071  0.24745023     0.13700
C1674       C  0.92314439  0.15735032  0.22566632    -0.30500
C1675       C  0.81547119  0.14388107  0.19088960    -0.30800
N1676       N  0.81706549  0.13024461  0.14159347     0.14200
H1677       H  0.79832297  0.15765039  0.20194816     0.16800
C1678       C  0.84249516  0.11681008  0.14074819    -0.30800
H1679       H  0.85029601  0.10482475  0.10605799     0.16800
H1680       H  0.94246610  0.14981805  0.20746261     0.16800
H1681       H  0.84256904  0.11212319  0.39070177     0.16900
H1682       H  0.88602701  0.20354355  0.28861263     0.16800
C1683       C  0.63615347  0.14658161  0.71010362     0.30700
C1684       C  0.60310117  0.11563041  0.77831193     0.30700
C1685       C  0.64850735  0.14103505  0.76899055    -0.05500
C1686       C  0.60705382  0.16002324  0.72480739    -0.06300
C1687       C  0.62776111  0.11768352  0.68862012    -0.06200
C1688       C  0.63158505  0.12525758  0.80337570    -0.05500
C1689       C  0.59019968  0.14412191  0.76020475    -0.06300
C1690       C  0.61121038  0.10191181  0.72312716    -0.06200
C1691       C  0.64490577  0.12362961  0.85479505    -0.31500
N1692       N  0.66982112  0.13726453  0.85273448     0.15000
C1693       C  0.67185294  0.14868039  0.80077668    -0.31600
H1694       H  0.68916441  0.16152049  0.78707737     0.16900
C1695       C  0.56739789  0.16081690  0.77461501    -0.30500
N1696       N  0.56891731  0.18567268  0.74724236     0.13700
C1697       C  0.59348422  0.18569587  0.71817549    -0.30500
C1698       C  0.60491483  0.07754684  0.69491265    -0.30800
N1699       N  0.61741650  0.07817059  0.64395423     0.14200
H1700       H  0.59165581  0.06088231  0.70992450     0.16800
C1701       C  0.63149201  0.10273820  0.64007749    -0.30800
H1702       H  0.64348626  0.10941927  0.60430885     0.16800
H1703       H  0.60105034  0.20343954  0.69488938     0.16800
H1704       H  0.63725313  0.11297940  0.89136352     0.16900
H1705       H  0.55118866  0.15577671  0.80428925     0.16800
C1706       C  0.63403449  0.36559689  0.29214118     0.30700
C1707       C  0.60295988  0.39721603  0.22166949     0.30700
C1708       C  0.64811083  0.37204566  0.23497001    -0.05500
C1709       C  0.60553664  0.35302101  0.27516409    -0.06300
C1710       C  0.62630857  0.39496056  0.31348995    -0.06200
C1711       C  0.63169044  0.38787448  0.19963444    -0.05500
C1712       C  0.58910802  0.36911918  0.23953157    -0.06300
C1713       C  0.60950483  0.41076561  0.27829001    -0.06200
C1714       C  0.64577470  0.39089027  0.14977090    -0.31500
N1715       N  0.67097576  0.37754605  0.15306489     0.15000
C1716       C  0.67274360  0.36615322  0.20527849    -0.31600
H1717       H  0.69078875  0.35446640  0.22037877     0.16900
C1718       C  0.56442866  0.35398112  0.23090474    -0.30500
N1719       N  0.56619147  0.32899523  0.25822092     0.13700
C1720       C  0.59134414  0.32841659  0.28555933    -0.30500
C1721       C  0.60241241  0.43490688  0.30673757    -0.30800
N1722       N  0.61586470  0.43479557  0.35683111     0.14200
H1723       H  0.58825354  0.45119400  0.29242171     0.16800
C1724       C  0.63107737  0.41083337  0.36053177    -0.30800
H1725       H  0.64469508  0.40558570  0.39519739     0.16800
H1726       H  0.59878899  0.31136308  0.31142152     0.16800
H1727       H  0.63830019  0.40246803  0.11385192     0.16900
H1728       H  0.54627421  0.36053066  0.20674936     0.16800
O1729       O  0.52088827  0.01586694  0.11748375    -0.79400
O1730       O  0.96071024  0.04643529  0.94274149    -0.79500
O1731       O  0.56085240  0.02869500  0.96916658    -0.79500
O1732       O  0.96233640  0.04344369  0.04674599    -0.79400
O1733       O  0.52047001  0.04787916  0.94280961    -0.79500
O1734       O  0.96455907  0.01570545  0.11866158    -0.79500
O1735       O  0.92096598  0.02762844  0.97328943    -0.79400
O1736       O  0.52101513  0.04306825  0.04510624    -0.79500
C1737       C  0.52585429  0.03944285  0.09574373     1.10300
C1738       C  0.93370127  0.04468740  0.94224852     1.10100
C1739       C  0.54752785  0.04640711  0.93962980     1.10300
C1740       C  0.95842637  0.03916599  0.09751856     1.10200
O1741       O  0.96420353  0.45976624  0.07294939    -0.79400
O1742       O  0.51974223  0.49552718  0.88512776    -0.79500
O1743       O  0.55213677  0.49060081  0.05383302    -0.79500
O1744       O  0.94463663  0.47729373  0.96110130    -0.79400
O1745       O  0.96514636  0.49238856  0.88752464    -0.79500
O1746       O  0.51981969  0.45966784  0.07047156    -0.79500
O1747       O  0.93181064  0.49121608  0.05728445    -0.79400
O1748       O  0.53782413  0.47707108  0.95804408    -0.79500
Co1749     Co  0.99241867  0.98795639  0.08985007     1.51500
Co1750     Co  0.99141559  0.01842882  0.92406699     1.51700
Co1751     Co  0.52865438  0.01076990  0.99793964     1.51600
Co1752     Co  0.95428818  0.01081912  0.99997805     1.51500
O1753       O  0.99175034  0.99730805  0.00668582    -1.41400
C1754       C  0.93876362  0.46700227  0.07302248     1.10200
C1755       C  0.53461696  0.47704874  0.90712545     1.10300
C1756       C  0.54521402  0.46637970  0.06937859     1.10200
C1757       C  0.94953270  0.47512792  0.91096010     1.10200
O1758       O  0.78744092  0.22733926  0.43899367    -0.79400
O1759       O  0.76364125  0.32183842  0.54052923    -0.79500
O1760       O  0.75402084  0.28472733  0.38775249    -0.79500
O1761       O  0.75348633  0.22926953  0.61168261    -0.79400
O1762       O  0.78240280  0.28643287  0.46085380    -0.79500
O1763       O  0.78489948  0.22960804  0.54758543    -0.79500
O1764       O  0.76608615  0.28218655  0.58886324    -0.79400
O1765       O  0.75550259  0.22976897  0.37329196    -0.79500
C1766       C  0.78045625  0.22422104  0.38924718     1.10300
C1767       C  0.77357897  0.30767382  0.58068072     1.10100
C1768       C  0.77708229  0.29224603  0.41063974     1.10300
C1769       C  0.77787915  0.22294677  0.59546919     1.10200
O1770       O  0.73203273  0.19707305  0.54513807    -0.79400
O1771       O  0.72805147  0.31190009  0.45571472    -0.79500
O1772       O  0.70295676  0.22389423  0.43308941    -0.79500
O1773       O  0.71561450  0.27003258  0.63284199    -0.79400
O1774       O  0.71420026  0.29640389  0.55629178    -0.79500
O1775       O  0.73692626  0.19304437  0.43551696    -0.79500
O1776       O  0.70085916  0.23140730  0.55405978    -0.79400
O1777       O  0.69887456  0.27815332  0.44276750    -0.79500
Co1778     Co  0.76061200  0.21325741  0.49235048     1.51500
Co1779     Co  0.75003353  0.28882161  0.50953505     1.51700
Co1780     Co  0.72742116  0.25413940  0.41219297     1.51600
Co1781     Co  0.73182519  0.25721835  0.56656167     1.51500
O1782       O  0.74235173  0.25019316  0.48845117    -1.41400
C1783       C  0.70736282  0.20585999  0.55785137     1.10200
C1784       C  0.70500483  0.30309608  0.43692263     1.10300
C1785       C  0.71201910  0.20007294  0.42168855     1.10200
C1786       C  0.70677878  0.29130420  0.60660697     1.10200
C1787       C  0.58634434  0.45891631  0.12654882    -0.11600
C1788       C  0.56528104  0.44741121  0.09403750     0.05400
C1789       C  0.55962856  0.41877925  0.09729593    -0.06900
C1790       C  0.57223750  0.40305661  0.13873344    -0.07600
C1791       C  0.58949698  0.41556726  0.17857665    -0.02200
C1792       C  0.59902615  0.44325406  0.16826963     0.04700
N1793       N  0.62156296  0.45603646  0.19837212     0.67200
H1794       H  0.59178200  0.48071642  0.12201303     0.16100
H1795       H  0.56886416  0.38090696  0.13820892     0.15800
N1796       N  0.54021606  0.40553963  0.06063849     0.74900
O1797       O  0.64656979  0.44839702  0.18905657    -0.38600
O1798       O  0.61749186  0.47998989  0.21823479    -0.38500
O1799       O  0.54967494  0.39311473  0.01857802    -0.39200
O1800       O  0.51645410  0.39867981  0.07924275    -0.39300
C1801       C  0.66770501  0.32706451  0.30982848    -0.11600
C1802       C  0.65007104  0.34740084  0.33202642     0.05400
C1803       C  0.64735441  0.34898267  0.39075747    -0.06900
C1804       C  0.66829783  0.33711971  0.42385548    -0.07600
C1805       C  0.68798229  0.31948188  0.40022045    -0.02200
C1806       C  0.68659953  0.31291961  0.34334688     0.04700
N1807       N  0.70126670  0.28967090  0.32034482     0.67200
H1808       H  0.66605281  0.32119049  0.26662214     0.16100
H1809       H  0.66730713  0.33887473  0.46873379     0.15800
N1810       N  0.62201612  0.35820770  0.41752439     0.74900
O1811       O  0.68806468  0.26713778  0.31679876    -0.38600
O1812       O  0.72116112  0.29385358  0.28686222    -0.38500
O1813       O  0.59854501  0.34931654  0.40065396    -0.39200
O1814       O  0.62351646  0.36818124  0.46587670    -0.39300
C1815       C  0.64274270  0.17790842  0.62728572    -0.11600
C1816       C  0.65515723  0.16084869  0.66847180     0.05400
C1817       C  0.68422977  0.15366161  0.66277548    -0.06900
C1818       C  0.70041495  0.16780120  0.62372248    -0.07600
C1819       C  0.68832402  0.18731189  0.58759095    -0.02200
C1820       C  0.65899705  0.19130970  0.58728807     0.04700
N1821       N  0.64529605  0.20742664  0.54473304     0.67200
H1822       H  0.62013701  0.17983929  0.62386713     0.16100
H1823       H  0.72291001  0.16381391  0.62227130     0.15800
N1824       N  0.69797014  0.13207806  0.69478498     0.74900
O1825       O  0.64653494  0.19930814  0.49502064    -0.38600
O1826       O  0.62707182  0.22543860  0.55778029    -0.38500
O1827       O  0.68721742  0.10817997  0.69834634    -0.39200
O1828       O  0.72341425  0.13503047  0.70914019    -0.39300
C1829       C  0.54534738  0.08040518  0.86306699    -0.11600
C1830       C  0.56198103  0.06473101  0.90051270     0.05400
C1831       C  0.59122294  0.06294845  0.89231327    -0.06900
C1832       C  0.60297383  0.07677253  0.84750114    -0.07600
C1833       C  0.58711570  0.09593210  0.81566049    -0.02200
C1834       C  0.55749192  0.09519996  0.81941392     0.04700
N1835       N  0.53954931  0.10525089  0.77545518     0.67200
H1836       H  0.52256129  0.07977147  0.86533889     0.16100
H1837       H  0.62521621  0.07364676  0.83969011     0.15800
N1838       N  0.60944040  0.04789837  0.92950546     0.74900
O1839       O  0.54370109  0.09693832  0.72649728    -0.38600
O1840       O  0.51614221  0.11641004  0.78697589    -0.38500
O1841       O  0.62159793  0.02597619  0.91329684    -0.39200
O1842       O  0.61808105  0.05966419  0.97309128    -0.39300
C1843       C  0.92488426  0.10514382  0.14803971    -0.11600
C1844       C  0.90286451  0.09447167  0.18054124     0.05400
C1845       C  0.89722868  0.06567936  0.17722720    -0.06900
C1846       C  0.91721408  0.04797672  0.15412458    -0.07600
C1847       C  0.94117606  0.05865489  0.12839605    -0.02200
C1848       C  0.94459812  0.08752960  0.12364485     0.04700
N1849       N  0.96827975  0.09924936  0.09570879     0.67200
H1850       H  0.92637099  0.12705661  0.13918246     0.16100
H1851       H  0.91298824  0.02586125  0.15281572     0.15800
N1852       N  0.87041183  0.05437233  0.19163225     0.74900
O1853       O  0.96528238  0.10866595  0.04699222    -0.38600
O1854       O  0.98958999  0.10622193  0.12382508    -0.38500
O1855       O  0.85024829  0.05711077  0.15767012    -0.39200
O1856       O  0.86956318  0.03458257  0.22603611    -0.39300
C1857       C  0.84421433  0.18495196  0.34824017    -0.11600
C1858       C  0.83245357  0.16374393  0.31608019     0.05400
C1859       C  0.80277848  0.16119778  0.31463951    -0.06900
C1860       C  0.78628297  0.18359918  0.33165877    -0.07600
C1861       C  0.79870771  0.20688372  0.35608933    -0.02200
C1862       C  0.82797635  0.20740242  0.36500372     0.04700
N1863       N  0.84150678  0.23077801  0.39005885     0.67200
H1864       H  0.86620065  0.18439538  0.35994326     0.16100
H1865       H  0.76353370  0.18152182  0.33120260     0.15800
N1866       N  0.78915609  0.13524256  0.30302704     0.74900
O1867       O  0.84980431  0.22918046  0.43985822    -0.38600
O1868       O  0.85117434  0.24971317  0.35913811    -0.38500
O1869       O  0.79561933  0.11406296  0.33167461    -0.39200
O1870       O  0.76592773  0.13533456  0.27725449    -0.39300
C1871       C  0.81570506  0.32791466  0.70587285    -0.11600
C1872       C  0.83504250  0.34630141  0.68191941     0.05400
C1873       C  0.83831156  0.34580280  0.62334741    -0.06900
C1874       C  0.81726717  0.33372912  0.59100416    -0.07600
C1875       C  0.79504229  0.31962346  0.61606695    -0.02200
C1876       C  0.79503981  0.31541292  0.67381285     0.04700
N1877       N  0.77339765  0.30000173  0.70101940     0.67200
H1878       H  0.81629009  0.32327570  0.74975497     0.16100
H1879       H  0.81887120  0.33424200  0.54606647     0.15800
N1880       N  0.86355100  0.35484287  0.59628622     0.74900
O1881       O  0.75256396  0.31298644  0.72067405    -0.38600
O1882       O  0.77911104  0.27606442  0.71974649    -0.38500
O1883       O  0.88667979  0.34341024  0.60924814    -0.39200
O1884       O  0.86164226  0.36693717  0.54972935    -0.39300
C1885       C  0.93052214  0.41805389  0.81312333    -0.11600
C1886       C  0.90102613  0.41807960  0.81902345     0.05400
C1887       C  0.88817260  0.43954841  0.85064495    -0.06900
C1888       C  0.90491289  0.45582543  0.88437621    -0.07600
C1889       C  0.93409587  0.45479761  0.87984241    -0.02200
C1890       C  0.94713865  0.43620846  0.84354991     0.04700
N1891       N  0.97709838  0.43454167  0.83937460     0.67200
H1892       H  0.94086537  0.40481496  0.78331366     0.16100
H1893       H  0.89507659  0.47124028  0.91081579     0.15800
N1894       N  0.85910511  0.44753103  0.84442223     0.74900
O1895       O  0.99021809  0.41654157  0.86796682    -0.38600
O1896       O  0.98929393  0.44608680  0.79896168    -0.38500
O1897       O  0.84453258  0.45231873  0.88712577    -0.39200
O1898       O  0.85076560  0.45740974  0.79855928    -0.39300
C1899       C  0.92449701  0.09194118  0.91164896    -0.11600
C1900       C  0.91843864  0.06372503  0.90747097     0.05400
C1901       C  0.90151002  0.05376798  0.86447353    -0.06900
C1902       C  0.89189525  0.07210956  0.82447637    -0.07600
C1903       C  0.89986494  0.10024747  0.82467429    -0.02200
C1904       C  0.91418504  0.11063400  0.87223850     0.04700
N1905       N  0.91573736  0.13966010  0.88504009     0.67200
H1906       H  0.93669194  0.09952261  0.94658664     0.15100
H1907       H  0.87697259  0.06411453  0.79467422     0.15800
N1908       N  0.89507580  0.02493073  0.85877662     0.74900
O1909       O  0.93944303  0.15020418  0.89578335    -0.38600
O1910       O  0.89388542  0.15194433  0.90205162    -0.38500
O1911       O  0.87114485  0.01655714  0.87393939    -0.39200
O1912       O  0.90866091  0.01085688  0.82366202    -0.39300
C1913       C  0.80017219  0.20974697  0.68312374    -0.11600
C1914       C  0.79645293  0.20495339  0.62680203     0.05400
C1915       C  0.81298197  0.18489671  0.59926114    -0.06900
C1916       C  0.83250957  0.16950952  0.62914374    -0.07600
C1917       C  0.83454504  0.17221478  0.68667315    -0.02200
C1918       C  0.82023810  0.19467772  0.71287573     0.04700
N1919       N  0.82771082  0.20444755  0.76707284     0.67200
H1920       H  0.78862766  0.22624263  0.70334183     0.16100
H1921       H  0.84642841  0.15596813  0.60649987     0.15800
N1922       N  0.80953195  0.17915191  0.54134930     0.74900
O1923       O  0.80881029  0.20660913  0.80355043    -0.38600
O1924       O  0.84905811  0.21975372  0.77132743    -0.38500
O1925       O  0.82888441  0.18558428  0.50799797    -0.39200
O1926       O  0.79087830  0.16214860  0.52616456    -0.39300
C1927       C  0.58773913  0.44856998  0.81129068    -0.11600
C1928       C  0.58636099  0.41986478  0.82216967     0.05400
C1929       C  0.57005229  0.41075013  0.86783915    -0.06900
C1930       C  0.55203546  0.42969106  0.89351112    -0.07600
C1931       C  0.55012954  0.45721021  0.87453039    -0.02200
C1932       C  0.56791046  0.46666402  0.83251152     0.04700
N1933       N  0.56676589  0.49469402  0.81217655     0.67200
H1934       H  0.60413010  0.45729320  0.78574922     0.16100
H1935       H  0.53998663  0.42316639  0.92934952     0.15800
N1936       N  0.57409775  0.38403485  0.89342267     0.74900
O1937       O  0.58724595  0.51067152  0.82113981    -0.38600
O1938       O  0.54964539  0.00077080  0.77382444    -0.38500
O1939       O  0.59541548  0.38048412  0.92411051    -0.39200
O1940       O  0.55300011  0.36866485  0.90137805    -0.39300
C1941       C  0.70101182  0.33543346  0.65370894    -0.11600
C1942       C  0.68876338  0.31126874  0.63294710     0.05400
C1943       C  0.65955971  0.30908015  0.62924414    -0.06900
C1944       C  0.64297483  0.32996295  0.65147092    -0.07600
C1945       C  0.65505876  0.35086032  0.68410498    -0.02200
C1946       C  0.68438888  0.35562097  0.67912241     0.04700
N1947       N  0.69735213  0.38116274  0.69576376     0.67200
H1948       H  0.72342040  0.33887570  0.64902304     0.16100
H1949       H  0.62067438  0.32966544  0.64286600     0.15800
N1950       N  0.64647556  0.28555754  0.60438227     0.74900
O1951       O  0.72019247  0.38019083  0.72278716    -0.38600
O1952       O  0.69120726  0.40328218  0.66979961    -0.38500
O1953       O  0.63589001  0.26719505  0.63548887    -0.39200
O1954       O  0.63954057  0.28658010  0.55373591    -0.39300
C1955       C  0.82492255  0.30945604  0.39417073    -0.11600
C1956       C  0.79603562  0.31117494  0.38209310     0.05400
C1957       C  0.78560275  0.33392493  0.35076982    -0.06900
C1958       C  0.80438361  0.35253755  0.32782472    -0.07600
C1959       C  0.83342814  0.34827459  0.33222245    -0.02200
C1960       C  0.84365742  0.32872472  0.37170501     0.04700
N1961       N  0.87123997  0.33088503  0.39585119     0.67200
H1962       H  0.83268217  0.29406236  0.42368238     0.16100
H1963       H  0.79600899  0.37043853  0.30553658     0.15800
N1964       N  0.75622700  0.34008789  0.34512066     0.74900
O1965       O  0.88531402  0.30907209  0.40641678    -0.38600
O1966       O  0.87803767  0.35323473  0.41961959    -0.38500
O1967       O  0.74419860  0.35260816  0.38444323    -0.39200
O1968       O  0.74616672  0.34295716  0.29676809    -0.39300
C1969       C  0.91176585  0.40405307  0.14166328    -0.11600
C1970       C  0.89595178  0.41666060  0.18390811     0.05400
C1971       C  0.88632606  0.44446019  0.17476354    -0.06900
C1972       C  0.89878517  0.46049691  0.13371081    -0.07600
C1973       C  0.91864370  0.44869530  0.09870574    -0.02200
C1974       C  0.92303640  0.41984787  0.09902211     0.04700
N1975       N  0.93765744  0.40627159  0.05496268     0.67200
H1976       H  0.91412306  0.38174374  0.13937243     0.16100
H1977       H  0.89342599  0.48238822  0.13019900     0.15800
N1978       N  0.86310928  0.45647806  0.20395337     0.74900
O1979       O  0.96070109  0.39409472  0.06524208    -0.38600
O1980       O  0.92419009  0.39995571  0.01152411    -0.38500
O1981       O  0.86641116  0.47985872  0.22640436    -0.39200
O1982       O  0.83839784  0.44876710  0.19249254    -0.39300
C1983       C  0.67936194  0.19974179  0.34417147    -0.11600
C1984       C  0.69530959  0.18419710  0.38245282     0.05400
C1985       C  0.69563312  0.15520577  0.37921161    -0.06900
C1986       C  0.67803716  0.14250402  0.34062720    -0.07600
C1987       C  0.65829780  0.15831318  0.30918201    -0.02200
C1988       C  0.66191205  0.18732702  0.30556106     0.04700
N1989       N  0.64980916  0.20433071  0.26196418     0.67200
H1990       H  0.68086582  0.22193375  0.34380493     0.16100
H1991       H  0.67919521  0.12009801  0.33691371     0.15800
N1992       N  0.71145010  0.13849063  0.41762389     0.74900
O1993       O  0.64410382  0.22962769  0.27095539    -0.38600
O1994       O  0.64926383  0.19572345  0.21252872    -0.38500
O1995       O  0.69971444  0.12989000  0.46137744    -0.39200
O1996       O  0.73440369  0.12758159  0.40254478    -0.39300
C1997       C  0.55608331  0.08115081  0.09609983    -0.11600
C1998       C  0.54056299  0.06139372  0.12631784     0.05400
C1999       C  0.54027700  0.06281432  0.18444088    -0.06900
C2000       C  0.55711799  0.08225851  0.21097425    -0.07600
C2001       C  0.57706250  0.09800211  0.18141664    -0.02200
C2002       C  0.57382295  0.10007709  0.12291395     0.04700
N2003       N  0.58684502  0.12166990  0.09037715     0.67200
H2004       H  0.55472740  0.08165355  0.05115928     0.16100
H2005       H  0.55486014  0.08443288  0.25535419     0.15800
N2006       N  0.52367258  0.04432122  0.21730704     0.74900
O2007       O  0.59284805  0.11736725  0.04006027    -0.38600
O2008       O  0.58815461  0.14621839  0.10861141    -0.38500
O2009       O  0.53518202  0.02301112  0.23861322    -0.39200
O2010       O  0.50010844  0.05246201  0.23529784    -0.39300
C2011       C  0.59942911  0.61345592  0.21422982     0.30700
C2012       C  0.63580433  0.64339159  0.27703534     0.30700
C2013       C  0.62895365  0.61868664  0.18757800    -0.05500
C2014       C  0.58913708  0.64286714  0.23077396    -0.06300
C2015       C  0.60781810  0.60016070  0.27157897    -0.06200
C2016       C  0.64699794  0.63414550  0.22029768    -0.05500
C2017       C  0.60733511  0.65819984  0.26351918    -0.06300
C2018       C  0.62554870  0.61611424  0.30397486    -0.06200
C2019       C  0.67191007  0.63792661  0.19167092    -0.31500
N2020       N  0.67015807  0.62513133  0.14163841     0.15000
C2021       C  0.64419373  0.61277006  0.13920006    -0.31600
H2022       H  0.63694871  0.60046555  0.10453977     0.16900
C2023       C  0.59271703  0.68243508  0.27784810    -0.30500
N2024       N  0.56692361  0.68281350  0.25232594     0.13700
C2025       C  0.56458512  0.65840177  0.22404815    -0.30500
C2026       C  0.62864621  0.60279488  0.35500205    -0.30800
N2027       N  0.61477649  0.57823124  0.35384307     0.14200
H2028       H  0.64030577  0.61023904  0.39061886     0.16800
C2029       C  0.60242845  0.57615691  0.30275392    -0.30800
H2030       H  0.59049443  0.55824342  0.28947208     0.16800
H2031       H  0.54622569  0.65222064  0.20037419     0.16800
H2032       H  0.68980246  0.64990609  0.20578541     0.16900
H2033       H  0.59999970  0.69839361  0.30590061     0.16800
N2034       N  0.99384144  0.71306937  0.24925070    -0.35900
N2035       N  0.53759546  0.75594650  0.25903512    -0.56500
N2036       N  0.99348666  0.79916983  0.25294912    -0.35900
N2037       N  0.94974915  0.75619541  0.25329816    -0.56500
C2038       C  0.51689701  0.69768676  0.26399149     0.27700
C2039       C  0.97059387  0.69777106  0.26144218     0.27700
C2040       C  0.51640816  0.81421282  0.26814983     0.27700
C2041       C  0.97021428  0.81436097  0.26613410     0.27700
C2042       C  0.55366266  0.73330151  0.24644734     0.36300
C2043       C  0.55345523  0.77883624  0.24819014     0.36300
C2044       C  0.93414235  0.73365019  0.23884119     0.36300
C2045       C  0.93396490  0.77925078  0.24141251     0.36300
C2046       C  0.50818344  0.67258660  0.28649045    -0.21200
C2047       C  0.97910471  0.67270075  0.28523171    -0.21200
C2048       C  0.50759060  0.83899152  0.29182038    -0.21200
C2049       C  0.97853367  0.83905193  0.29073136    -0.21200
C2050       C  0.57961903  0.74192151  0.22703639    -0.22300
C2051       C  0.57956857  0.77062670  0.22840262    -0.22200
C2052       C  0.90856507  0.74257496  0.21680268    -0.22300
C2053       C  0.90840109  0.77129110  0.21872377    -0.22200
C2054       C  0.54557275  0.70498421  0.25449381    -0.17600
C2055       C  0.94206296  0.70522047  0.24866706    -0.17600
C2056       C  0.94177985  0.80726840  0.25358076    -0.17600
C2057       C  0.54503970  0.80697182  0.25802042    -0.17600
H2058       H  0.52140132  0.65590224  0.30245454     0.15300
H2059       H  0.96581623  0.65612238  0.30041974     0.15300
H2060       H  0.52072255  0.85537058  0.30830957     0.15300
H2061       H  0.96512008  0.85549634  0.30640140     0.15300
H2062       H  0.59664516  0.72892727  0.21226257     0.13600
H2063       H  0.59668937  0.78388358  0.21533971     0.13600
H2064       H  0.89173243  0.72981885  0.20063420     0.13600
H2065       H  0.89144064  0.78475093  0.20453217     0.13600
H2066       H  0.99405617  0.73159034  0.22663789     0.26900
H2067       H  0.99378965  0.78104249  0.22949852     0.26900
C2068       C  0.85181519  0.86519929  0.29426075     0.30700
C2069       C  0.88253022  0.89814165  0.22647247     0.30700
C2070       C  0.83868123  0.87129524  0.23587031    -0.05500
C2071       C  0.85886149  0.89441355  0.31761878    -0.06300
C2072       C  0.88089922  0.85300474  0.27768052    -0.06200
C2073       C  0.85438053  0.88836670  0.20250478    -0.05500
C2074       C  0.87499367  0.91108164  0.28345590    -0.06300
C2075       C  0.89711667  0.87010754  0.24384579    -0.06200
C2076       C  0.84078747  0.89093617  0.15159741    -0.31500
N2077       N  0.81685051  0.87569415  0.15244719     0.15000
C2078       C  0.81564457  0.86311387  0.20345576    -0.31600
H2079       H  0.79912564  0.84897841  0.21582872     0.16900
C2080       C  0.88097755  0.93518874  0.31327461    -0.30500
N2081       N  0.86787302  0.93431354  0.36361435     0.13700
C2082       C  0.85444376  0.90921297  0.36659799    -0.30500
C2083       C  0.92166689  0.85512435  0.23218776    -0.30800
N2084       N  0.92014315  0.82914193  0.25532341     0.14200
H2085       H  0.93938505  0.86237945  0.20812300     0.16800
C2086       C  0.89496145  0.82759530  0.28194540    -0.30800
H2087       H  0.88715749  0.80893955  0.30164345     0.16800
H2088       H  0.84248600  0.90204131  0.40202313     0.16800
H2089       H  0.84771321  0.90333765  0.11659487     0.16900
H2090       H  0.89446293  0.95196498  0.29976164     0.16800
N2091       N  0.61255968  0.50672610  0.41406341    -0.35900
N2092       N  0.61578768  0.54932450  0.49942519    -0.56500
N2093       N  0.61369402  0.50577345  0.58567223    -0.35900
N2094       N  0.61536666  0.96324558  0.50015259    -0.56500
C2095       C  0.62060412  0.52932679  0.38438566     0.27700
C2096       C  0.62072280  0.98394685  0.38532673     0.27700
C2097       C  0.62076855  0.52842297  0.61614694     0.27700
C2098       C  0.62046033  0.98269558  0.61599494     0.27700
C2099       C  0.60974969  0.56537623  0.45414227     0.36300
C2100       C  0.61035299  0.56503758  0.54491722     0.36300
C2101       C  0.60796358  0.94838125  0.45476357     0.36300
C2102       C  0.60904732  0.94729297  0.54495876     0.36300
C2103       C  0.63441897  0.52079906  0.33674761    -0.21200
C2104       C  0.63473377  0.99209168  0.33778419    -0.21200
C2105       C  0.63230986  0.51957048  0.66632839    -0.21200
C2106       C  0.63209072  0.99083398  0.66625486    -0.21200
C2107       C  0.60018421  0.59126820  0.47100916    -0.22300
C2108       C  0.60056235  0.59106164  0.52829492    -0.22200
C2109       C  0.59628596  0.92331535  0.47077479    -0.22300
C2110       C  0.59732150  0.92240954  0.52801687    -0.22200
C2111       C  0.61456699  0.55735609  0.39803973    -0.17600
C2112       C  0.61429189  0.95610791  0.39938542    -0.17600
C2113       C  0.61498532  0.95455359  0.60070194    -0.17600
C2114       C  0.61584022  0.55681436  0.60102902    -0.17600
H2115       H  0.64366811  0.53388073  0.30502850     0.15300
H2116       H  0.64461661  0.97864964  0.30762663     0.15300
H2117       H  0.64024471  0.53242405  0.69963958     0.15300
H2118       H  0.63975264  0.97748548  0.69946951     0.15300
H2119       H  0.59354921  0.60853587  0.44491711     0.13600
H2120       H  0.59419528  0.60816301  0.55458842     0.13600
H2121       H  0.58794626  0.90737883  0.44381305     0.13600
H2122       H  0.59006335  0.90552100  0.55413080     0.13600
H2123       H  0.59947871  0.50682525  0.44903376     0.26900
H2124       H  0.60215319  0.50612974  0.54842702     0.26900
N2125       N  0.87140895  0.50749918  0.41929102    -0.35900
N2126       N  0.86758447  0.96491054  0.50694682    -0.56500
N2127       N  0.87028560  0.50894775  0.59172935    -0.35900
N2128       N  0.86829619  0.55164842  0.50390609    -0.56500
C2129       C  0.86283580  0.98446056  0.39107190     0.27700
C2130       C  0.86335441  0.53031874  0.38908118     0.27700
C2131       C  0.86346286  0.98619885  0.62310818     0.27700
C2132       C  0.86387915  0.53214964  0.62174749     0.27700
C2133       C  0.87433137  0.94890619  0.46247605     0.36300
C2134       C  0.87434124  0.94981971  0.55301634     0.36300
C2135       C  0.87404357  0.56720969  0.45796989     0.36300
C2136       C  0.87335268  0.56803265  0.54876035     0.36300
C2137       C  0.84852066  0.99283522  0.34364053    -0.21200
C2138       C  0.84889573  0.52165423  0.34227015    -0.21200
C2139       C  0.85245277  0.99517248  0.67312862    -0.21200
C2140       C  0.85286996  0.52399868  0.67247391    -0.21200
C2141       C  0.88585153  0.92386831  0.48039942    -0.22300
C2142       C  0.88608713  0.92458959  0.53766233    -0.22200
C2143       C  0.88298797  0.59340477  0.47387058    -0.22300
C2144       C  0.88247334  0.59395078  0.53107734    -0.22200
C2145       C  0.86854079  0.95613976  0.40620493    -0.17600
C2146       C  0.86939952  0.55870482  0.40198678    -0.17600
C2147       C  0.86861603  0.56044681  0.60537320    -0.17600
C2148       C  0.86821152  0.95766316  0.60860915    -0.17600
H2149       H  0.83799835  0.97949697  0.31415211     0.15300
H2150       H  0.83875972  0.53484055  0.31148683     0.15300
H2151       H  0.84455577  0.98233650  0.70643792     0.15300
H2152       H  0.84553657  0.53739286  0.70547424     0.15300
H2153       H  0.89356357  0.90698957  0.45494561     0.13600
H2154       H  0.89429366  0.90852723  0.56504976     0.13600
H2155       H  0.88929301  0.61044075  0.44719391     0.13600
H2156       H  0.88837646  0.61146383  0.55662534     0.13600
H2157       H  0.88426698  0.50759972  0.45406713     0.26900
H2158       H  0.88096317  0.50860190  0.55468406     0.26900
C2159       C  0.60325509  0.90052416  0.78578335     0.30700
C2160       C  0.63644965  0.86773221  0.72181677     0.30700
C2161       C  0.63239583  0.89307299  0.81094177    -0.05500
C2162       C  0.59050600  0.87175986  0.77136348    -0.06300
C2163       C  0.61007856  0.91201580  0.72669915    -0.06200
C2164       C  0.64916224  0.87591009  0.77888756    -0.05500
C2165       C  0.60777793  0.85464437  0.73981618    -0.06300
C2166       C  0.62749530  0.89554571  0.69491494    -0.06200
C2167       C  0.67249991  0.86882058  0.81142999    -0.31500
N2168       N  0.67093548  0.88202273  0.86147081     0.15000
C2169       C  0.64644278  0.89704432  0.86121317    -0.31600
H2170       H  0.63919971  0.90973798  0.89535954     0.16900
C2171       C  0.59340241  0.82962086  0.73343717    -0.30500
N2172       N  0.56741110  0.83149395  0.75670000     0.13700
C2173       C  0.56543339  0.85740542  0.77954642    -0.30500
C2174       C  0.63066231  0.90875605  0.64366356    -0.30800
N2175       N  0.61546553  0.93291707  0.64346298     0.14200
H2176       H  0.64321423  0.90138309  0.60925093     0.16800
C2177       C  0.60181286  0.93426528  0.69276209    -0.30800
H2178       H  0.58660293  0.95038042  0.70229040     0.16800
H2179       H  0.54683014  0.86548159  0.79964783     0.16800
H2180       H  0.68918161  0.85453167  0.80004142     0.16900
H2181       H  0.60109183  0.81099510  0.71351822     0.16800
N2182       N  0.53875520  0.75859367  0.74714694    -0.35900
N2183       N  0.99441974  0.80131494  0.75486643    -0.56500
N2184       N  0.95152875  0.75779126  0.74380792    -0.35900
N2185       N  0.99570200  0.71498728  0.74653551    -0.56500
C2186       C  0.55378113  0.78126862  0.76324029     0.27700
C2187       C  0.55456890  0.73547455  0.75861940     0.27700
C2188       C  0.93593498  0.78007594  0.76030022     0.27700
C2189       C  0.93690315  0.73451394  0.75740239     0.27700
C2190       C  0.51715785  0.81751506  0.74414974     0.36300
C2191       C  0.97118893  0.81688576  0.74255664     0.36300
C2192       C  0.51891965  0.69961977  0.73434476     0.36300
C2193       C  0.97301760  0.69917349  0.73340229     0.36300
C2194       C  0.57927471  0.77226441  0.78568106    -0.21200
C2195       C  0.57984423  0.74354171  0.78235451    -0.21200
C2196       C  0.91136315  0.77086263  0.78490779    -0.21200
C2197       C  0.91224072  0.74216345  0.78380657    -0.21200
C2198       C  0.50821696  0.84322169  0.72406859    -0.22300
C2199       C  0.97921203  0.84286361  0.72334744    -0.22200
C2200       C  0.51087871  0.67417367  0.71265829    -0.22300
C2201       C  0.98186335  0.67387575  0.71215047    -0.22200
C2202       C  0.54574284  0.80983241  0.75505458    -0.17600
C2203       C  0.54719173  0.70737417  0.74637383    -0.17600
C2204       C  0.94456876  0.70662486  0.74426927    -0.17600
C2205       C  0.94287538  0.80850489  0.75176227    -0.17600
H2206       H  0.59583569  0.78499683  0.80299033     0.15300
H2207       H  0.59688224  0.73012158  0.79634345     0.15300
H2208       H  0.89484676  0.78347605  0.80301044     0.15300
H2209       H  0.89699858  0.72838218  0.80216469     0.15300
H2210       H  0.52112769  0.86044134  0.71058334     0.13600
H2211       H  0.96563812  0.85976670  0.70967603     0.13600
H2212       H  0.52447108  0.65748645  0.69865314     0.13600
H2213       H  0.96883002  0.65692885  0.69781335     0.13600
H2214       H  0.52003641  0.75901888  0.72461726     0.26900
H2215       H  0.96967776  0.75854219  0.71980912     0.26900
C2216       C  0.85219993  0.65174278  0.71892826     0.30700
C2217       C  0.88503806  0.61879578  0.78371407     0.30700
C2218       C  0.85989337  0.62278101  0.69295192    -0.05500
C2219       C  0.88124264  0.66380665  0.73463201    -0.06300
C2220       C  0.83915567  0.64292047  0.77472683    -0.06200
C2221       C  0.87759919  0.60637972  0.72578183    -0.05500
C2222       C  0.89828681  0.64690387  0.76727124    -0.06300
C2223       C  0.85614700  0.62661544  0.80779516    -0.06200
C2224       C  0.88343658  0.58218823  0.69604193    -0.31500
N2225       N  0.86841501  0.58230490  0.64774153     0.15000
C2226       C  0.85354088  0.60672221  0.64611202    -0.31600
H2227       H  0.83863758  0.61183089  0.61347674     0.16900
C2228       C  0.92418046  0.66012363  0.77145387    -0.30500
N2229       N  0.92283851  0.68519443  0.74468472     0.13700
C2230       C  0.89674308  0.68725143  0.72103809    -0.30500
C2231       C  0.84129605  0.62050692  0.85576418    -0.30800
N2232       N  0.81545492  0.63282468  0.85278315     0.14200
H2233       H  0.84880051  0.60797843  0.89037488     0.16800
C2234       C  0.81366947  0.64578370  0.80238685    -0.30800
H2235       H  0.79511076  0.65656219  0.78703482     0.16800
H2236       H  0.88959656  0.70450164  0.69538105     0.16800
H2237       H  0.89761950  0.56555630  0.70859373     0.16900
H2238       H  0.94283303  0.65195759  0.79181201     0.16800
N2239       N  0.74376886  0.87466481  0.09321567    -0.35900
N2240       N  0.78762807  0.87734256  0.00677387    -0.56500
N2241       N  0.74384578  0.87728536  0.92122439    -0.35900
N2242       N  0.69997856  0.87978693  0.00768990    -0.56500
C2243       C  0.76701491  0.88100119  0.12356314     0.27700
C2244       C  0.72092044  0.88178057  0.12395441     0.27700
C2245       C  0.76698810  0.88442987  0.89127376     0.27700
C2246       C  0.72077888  0.88605266  0.89216388     0.27700
C2247       C  0.80359451  0.87104857  0.05230471     0.36300
C2248       C  0.80373760  0.87212731  0.96125122     0.36300
C2249       C  0.68404131  0.87313566  0.05266401     0.36300
C2250       C  0.68398456  0.87490409  0.96173045     0.36300
C2251       C  0.75881012  0.89261977  0.17360977    -0.21200
C2252       C  0.72980937  0.89316291  0.17380297    -0.21200
C2253       C  0.75842110  0.89827506  0.84335200    -0.21200
C2254       C  0.72937165  0.89938658  0.84411329    -0.21200
C2255       C  0.82984821  0.86165182  0.03555814    -0.22300
C2256       C  0.82989448  0.86217812  0.97821324    -0.22200
C2257       C  0.65796091  0.86370336  0.03492602    -0.22300
C2258       C  0.65801149  0.86475848  0.97758897    -0.22200
C2259       C  0.79541100  0.87529032  0.10872349    -0.17600
C2260       C  0.69231645  0.87697601  0.10934765    -0.17600
C2261       C  0.69214981  0.88081157  0.90591694    -0.17600
C2262       C  0.79556068  0.87784266  0.90496417    -0.17600
H2263       H  0.77227063  0.90019029  0.20658051     0.15300
H2264       H  0.71683635  0.90130330  0.20687206     0.15300
H2265       H  0.77169770  0.90704765  0.81138339     0.15300
H2266       H  0.71601885  0.90922292  0.81309602     0.15300
H2267       H  0.84719018  0.85496588  0.06187214     0.13600
H2268       H  0.84727071  0.85580593  0.95219428     0.13600
H2269       H  0.64078126  0.85640759  0.06045200     0.13600
H2270       H  0.64115837  0.85811617  0.95056809     0.13600
H2271       H  0.74351919  0.86348102  0.05616871     0.26900
H2272       H  0.74366050  0.86455916  0.95649539     0.26900
N2273       N  0.74338740  0.63045502  0.08286606    -0.35900
N2274       N  0.78683960  0.63079467  0.99727102    -0.56500
N2275       N  0.74284075  0.63646467  0.91184413    -0.35900
N2276       N  0.69933995  0.63097858  0.99701565    -0.56500
C2277       C  0.76695090  0.62351677  0.11249532     0.27700
C2278       C  0.72057238  0.62177231  0.11228764     0.27700
C2279       C  0.76556004  0.62832594  0.88178759     0.27700
C2280       C  0.71953446  0.63007518  0.88177099     0.27700
C2281       C  0.80289946  0.63645968  0.04257310     0.36300
C2282       C  0.80231606  0.63788043  0.95218621     0.36300
C2283       C  0.68342736  0.63459518  0.04319667     0.36300
C2284       C  0.68349101  0.63970031  0.95300974     0.36300
C2285       C  0.75902520  0.60998736  0.16081503    -0.21200
C2286       C  0.72989202  0.60895649  0.16083458    -0.21200
C2287       C  0.75655404  0.61622335  0.83276705    -0.21200
C2288       C  0.72751710  0.61714359  0.83304140    -0.21200
C2289       C  0.82847254  0.64745784  0.02620986    -0.22300
C2290       C  0.82802232  0.64846982  0.96903535    -0.22200
C2291       C  0.65756550  0.64601122  0.02846034    -0.22300
C2292       C  0.65761116  0.64928204  0.97151013    -0.22200
C2293       C  0.79531988  0.63024732  0.09821405    -0.17600
C2294       C  0.69160553  0.62669399  0.09810535    -0.17600
C2295       C  0.69134146  0.63667837  0.89628657    -0.17600
C2296       C  0.79414328  0.63306647  0.89620342    -0.17600
H2297       H  0.77286436  0.60146599  0.19254464     0.15300
H2298       H  0.71705155  0.59973769  0.19301079     0.15300
H2299       H  0.76952069  0.60734824  0.80042496     0.15300
H2300       H  0.71378193  0.60864492  0.80156940     0.15300
H2301       H  0.84560562  0.65423570  0.05260352     0.13600
H2302       H  0.84457822  0.65644825  0.94293529     0.13600
H2303       H  0.64054740  0.65178196  0.05586423     0.13600
H2304       H  0.64048307  0.65770554  0.94665892     0.13600
H2305       H  0.74286278  0.64300142  0.04750975     0.26900
H2306       H  0.74324420  0.64828288  0.94800693     0.26900
C2307       C  0.88385232  0.89801012  0.78542863     0.30700
C2308       C  0.85157976  0.86553161  0.71930270     0.30700
C2309       C  0.85575521  0.88845495  0.81159184    -0.05500
C2310       C  0.87531081  0.91102183  0.72915747    -0.06300
C2311       C  0.89727974  0.86970564  0.76906944    -0.06200
C2312       C  0.83857217  0.87272305  0.77748870    -0.05500
C2313       C  0.85841199  0.89494169  0.69550429    -0.06300
C2314       C  0.88074232  0.85332784  0.73495981    -0.06200
C2315       C  0.81407536  0.86772806  0.80832101    -0.31500
N2316       N  0.81681298  0.87829117  0.86069739     0.15000
C2317       C  0.84262122  0.89042467  0.86303074    -0.31600
H2318       H  0.85125133  0.90019204  0.89965342     0.16900
C2319       C  0.85283855  0.91110330  0.64817800    -0.30500
N2320       N  0.86686205  0.93587925  0.65149259     0.13700
C2321       C  0.88073152  0.93579723  0.70111940    -0.30500
C2322       C  0.89538719  0.82865207  0.72601176    -0.30800
N2323       N  0.92056068  0.82955647  0.75338024     0.14200
H2324       H  0.88826955  0.81133713  0.70110088     0.16800
C2325       C  0.92143367  0.85418707  0.78116652    -0.30800
H2326       H  0.93836317  0.85999063  0.80894365     0.16800
H2327       H  0.89407467  0.95246202  0.71573971     0.16800
H2328       H  0.79526576  0.85739769  0.79383360     0.16900
H2329       H  0.83951017  0.90530202  0.61363497     0.16800
C2330       C  0.88542629  0.61349484  0.21704888     0.30700
C2331       C  0.85154021  0.64630632  0.27995048     0.30700
C2332       C  0.87763795  0.60153237  0.27536005    -0.05500
C2333       C  0.89804547  0.64249155  0.23248394    -0.06300
C2334       C  0.85654357  0.62118642  0.19078623    -0.06200
C2335       C  0.86014820  0.61827946  0.30681340    -0.05500
C2336       C  0.88030829  0.65953629  0.26305783    -0.06300
C2337       C  0.83936228  0.63803874  0.22262532    -0.06200
C2338       C  0.85538331  0.60452150  0.35686182    -0.31500
N2339       N  0.86942347  0.57964375  0.35725165     0.15000
C2340       C  0.88357956  0.57802785  0.30802271    -0.31600
H2341       H  0.89768521  0.56115692  0.29724849     0.16900
C2342       C  0.89422467  0.68492950  0.26941738    -0.30500
N2343       N  0.92050126  0.68337504  0.24738603     0.13700
C2344       C  0.92313603  0.65735251  0.22560879    -0.30500
C2345       C  0.81545980  0.64390560  0.19081987    -0.30800
N2346       N  0.81705296  0.63026958  0.14152340     0.14200
H2347       H  0.79831129  0.65767350  0.20188339     0.16800
C2348       C  0.84248189  0.61683422  0.14067366    -0.30800
H2349       H  0.85028000  0.60484763  0.10598278     0.16800
H2350       H  0.94245622  0.64981881  0.20740158     0.16800
H2351       H  0.84253424  0.61214008  0.39062450     0.16900
H2352       H  0.88602169  0.70355390  0.28853489     0.16800
C2353       C  0.63615398  0.64656690  0.71005727     0.30700
C2354       C  0.60308717  0.61561852  0.77824904     0.30700
C2355       C  0.64849322  0.64102681  0.76895754    -0.05500
C2356       C  0.60705011  0.66000568  0.72472829    -0.06300
C2357       C  0.62776979  0.61766645  0.68857949    -0.06200
C2358       C  0.63156450  0.62524970  0.80333266    -0.05500
C2359       C  0.59018872  0.64410707  0.76011875    -0.06300
C2360       C  0.61121017  0.60189723  0.72307605    -0.06200
C2361       C  0.64487952  0.62361450  0.85475605    -0.31500
N2362       N  0.66979538  0.63724961  0.85270941     0.15000
C2363       C  0.67183392  0.64866960  0.80075679    -0.31600
H2364       H  0.68914897  0.66150777  0.78706813     0.16900
C2365       C  0.56739137  0.66080779  0.77452177    -0.30500
N2366       N  0.56891776  0.68566076  0.74714269     0.13700
C2367       C  0.59348666  0.68567958  0.71808511    -0.30500
C2368       C  0.60491492  0.57753428  0.69485802    -0.30800
N2369       N  0.61742879  0.57815548  0.64391203     0.14200
H2370       H  0.59164734  0.56087357  0.70985694     0.16800
C2371       C  0.63150933  0.60272005  0.64004294    -0.30800
H2372       H  0.64350978  0.60939932  0.60428103     0.16800
H2373       H  0.60105927  0.70342172  0.69480266     0.16800
H2374       H  0.63722454  0.61295539  0.89131263     0.16900
H2375       H  0.55118223  0.65577614  0.80420122     0.16800
C2376       C  0.63402980  0.86561027  0.29213780     0.30700
C2377       C  0.60295781  0.89723409  0.22167445     0.30700
C2378       C  0.64811224  0.87207212  0.23497701    -0.05500
C2379       C  0.60553661  0.85303067  0.27513985    -0.06300
C2380       C  0.62629348  0.89496923  0.31350604    -0.06200
C2381       C  0.63169261  0.88790284  0.19964527    -0.05500
C2382       C  0.58910912  0.86913154  0.23951204    -0.06300
C2383       C  0.60949188  0.91077680  0.27830646    -0.06200
C2384       C  0.64577779  0.89092351  0.14978272    -0.31500
N2385       N  0.67097910  0.87757975  0.15307308     0.15000
C2386       C  0.67274648  0.86618399  0.20528494    -0.31600
H2387       H  0.69079053  0.85449419  0.22038112     0.16900
C2388       C  0.56443157  0.85399212  0.23087088    -0.30500
N2389       N  0.56619463  0.82900228  0.25817218     0.13700
C2390       C  0.59134568  0.82842282  0.28551724    -0.30500
C2391       C  0.60239213  0.93491388  0.30676233    -0.30800
N2392       N  0.61583601  0.93479804  0.35686529     0.14200
H2393       H  0.58823582  0.95120247  0.29244299     0.16800
C2394       C  0.63105210  0.91083719  0.36056040    -0.30800
H2395       H  0.64466888  0.90558881  0.39522678     0.16800
H2396       H  0.59878968  0.81136732  0.31137498     0.16800
H2397       H  0.63830189  0.90250103  0.11386454     0.16900
H2398       H  0.54627657  0.86054455  0.20672018     0.16800
O2399       O  0.52089216  0.51585219  0.11748659    -0.79400
O2400       O  0.96070962  0.54644543  0.94276329    -0.79500
O2401       O  0.56085758  0.52869237  0.96915838    -0.79500
O2402       O  0.96233760  0.54343752  0.04675874    -0.79400
O2403       O  0.52047648  0.54788479  0.94282548    -0.79500
O2404       O  0.96455910  0.51569529  0.11866765    -0.79500
O2405       O  0.92096784  0.52762776  0.97329125    -0.79400
O2406       O  0.52101923  0.54305663  0.04511336    -0.79500
C2407       C  0.52585901  0.53942827  0.09574901     1.10300
C2408       C  0.93370092  0.54468990  0.94225347     1.10100
C2409       C  0.54753339  0.54640552  0.93962242     1.10300
C2410       C  0.95842430  0.53915693  0.09752897     1.10200
O2411       O  0.96419934  0.95977514  0.07296923    -0.79400
O2412       O  0.51974779  0.99551210  0.88513554    -0.79500
O2413       O  0.55213355  0.99061547  0.05384581    -0.79500
O2414       O  0.94462744  0.97729193  0.96111227    -0.79400
O2415       O  0.96515176  0.99236514  0.88753340    -0.79500
O2416       O  0.51981750  0.95968169  0.07048324    -0.79500
O2417       O  0.93180734  0.99122509  0.05729163    -0.79400
O2418       O  0.53782738  0.97706977  0.95806628    -0.79500
Co2419     Co  0.99242126  0.48794572  0.08984395     1.51500
Co2420     Co  0.99141485  0.51844136  0.92407221     1.51700
Co2421     Co  0.52865796  0.51076530  0.99793518     1.51600
Co2422     Co  0.95429138  0.51081734  0.99997927     1.51500
O2423       O  0.99175293  0.49730680  0.00668154    -1.41400
C2424       C  0.93875909  0.96701201  0.07303498     1.10200
C2425       C  0.53462522  0.97703963  0.90714690     1.10300
C2426       C  0.54521101  0.96639576  0.06939643     1.10200
C2427       C  0.94953143  0.97511256  0.91097637     1.10200
O2428       O  0.78743221  0.72734345  0.43893805    -0.79400
O2429       O  0.76363341  0.82184162  0.54050013    -0.79500
O2430       O  0.75401518  0.78472803  0.38771906    -0.79500
O2431       O  0.75350088  0.72927336  0.61164279    -0.79400
O2432       O  0.78239524  0.78643544  0.46082558    -0.79500
O2433       O  0.78490755  0.72961343  0.54753066    -0.79500
O2434       O  0.76607776  0.78219037  0.58883235    -0.79400
O2435       O  0.75548547  0.72976954  0.37325272    -0.79500
C2436       C  0.78044138  0.72422541  0.38919492     1.10300
C2437       C  0.77357310  0.80767663  0.58064877     1.10100
C2438       C  0.77707600  0.79224697  0.41061008     1.10300
C2439       C  0.77789532  0.72295730  0.59542220     1.10200
O2440       O  0.73204616  0.69706959  0.54511873    -0.79400
O2441       O  0.72804729  0.81190130  0.45568118    -0.79500
O2442       O  0.70294784  0.72389953  0.43307371    -0.79500
O2443       O  0.71560398  0.77002522  0.63280363    -0.79400
O2444       O  0.71418709  0.79639642  0.55625188    -0.79500
O2445       O  0.73691643  0.69304739  0.43549303    -0.79500
O2446       O  0.70086425  0.73139600  0.55402671    -0.79400
O2447       O  0.69886862  0.77815657  0.44274084    -0.79500
Co2448     Co  0.76061262  0.71325964  0.49231120     1.51500
Co2449     Co  0.75002592  0.78882232  0.50950365     1.51700
Co2450     Co  0.72741213  0.75414179  0.41216414     1.51600
Co2451     Co  0.73182291  0.75721491  0.56652783     1.51500
O2452       O  0.74234912  0.75019408  0.48841754    -1.41400
C2453       C  0.70737417  0.70585094  0.55782846     1.10200
C2454       C  0.70500107  0.80309791  0.43688845     1.10300
C2455       C  0.71200793  0.70007746  0.42167436     1.10200
C2456       C  0.70675875  0.79129132  0.60656136     1.10200
C2457       C  0.58634144  0.95893609  0.12656466    -0.11600
C2458       C  0.56527702  0.94742976  0.09405671     0.05400
C2459       C  0.55962372  0.91879818  0.09731491    -0.06900
C2460       C  0.57224100  0.90307491  0.13873748    -0.07600
C2461       C  0.58949692  0.91558615  0.17858480    -0.02200
C2462       C  0.59902241  0.94327496  0.16828775     0.04700
N2463       N  0.62155283  0.95606049  0.19840464     0.67200
H2464       H  0.59177725  0.98073675  0.12203025     0.16100
H2465       H  0.56886999  0.88092533  0.13820550     0.15800
N2466       N  0.54018007  0.90556480  0.06071195     0.74900
O2467       O  0.64656207  0.94842081  0.18911416    -0.38600
O2468       O  0.61747666  0.98001452  0.21826087    -0.38500
O2469       O  0.54960361  0.89311371  0.01865135    -0.39200
O2470       O  0.51641823  0.89874091  0.07937054    -0.39300
C2471       C  0.66769940  0.82707382  0.30980227    -0.11600
C2472       C  0.65006530  0.84740777  0.33201135     0.05400
C2473       C  0.64734831  0.84898226  0.39074181    -0.06900
C2474       C  0.66829103  0.83711583  0.42383404    -0.07600
C2475       C  0.68797821  0.81948402  0.40019013    -0.02200
C2476       C  0.68659685  0.81292763  0.34331308     0.04700
N2477       N  0.70128549  0.78969661  0.32028915     0.67200
H2478       H  0.66605015  0.82120796  0.26659099     0.16100
H2479       H  0.66729839  0.83886442  0.46871337     0.15800
N2480       N  0.62200753  0.85819748  0.41751110     0.74900
O2481       O  0.68810632  0.76715106  0.31671063    -0.38600
O2482       O  0.72118352  0.79390648  0.28682830    -0.38500
O2483       O  0.59854181  0.84928163  0.40066435    -0.39200
O2484       O  0.62350738  0.86818144  0.46585480    -0.39300
C2485       C  0.64275138  0.67788558  0.62722819    -0.11600
C2486       C  0.65516301  0.66083484  0.66843354     0.05400
C2487       C  0.68423949  0.65365759  0.66276426    -0.06900
C2488       C  0.70042831  0.66779950  0.62371934    -0.07600
C2489       C  0.68833770  0.68730116  0.58756845    -0.02200
C2490       C  0.65900968  0.69128881  0.58723980     0.04700
N2491       N  0.64531303  0.70739895  0.54466918     0.67200
H2492       H  0.62014569  0.67980875  0.62378908     0.16100
H2493       H  0.72292520  0.66382046  0.62228692     0.15800
N2494       N  0.69797965  0.63207963  0.69478850     0.74900
O2495       O  0.64655237  0.69927016  0.49496366    -0.38600
O2496       O  0.62709605  0.72542156  0.55769775    -0.38500
O2497       O  0.68722905  0.60818091  0.69835859    -0.39200
O2498       O  0.72342215  0.63503670  0.70915103    -0.39300
C2499       C  0.54534489  0.58041622  0.86307775    -0.11600
C2500       C  0.56198426  0.56472085  0.90047942     0.05400
C2501       C  0.59122029  0.56291013  0.89220756    -0.06900
C2502       C  0.60296076  0.57674091  0.84738997    -0.07600
C2503       C  0.58710092  0.59591795  0.81559507    -0.02200
C2504       C  0.55747880  0.59520518  0.81940382     0.04700
N2505       N  0.53952398  0.60525548  0.77546429     0.67200
H2506       H  0.52255951  0.57980107  0.86539558     0.16100
H2507       H  0.62519997  0.57361190  0.83954522     0.15800
N2508       N  0.60944342  0.54782112  0.92932661     0.74900
O2509       O  0.54365666  0.59693337  0.72650629    -0.38600
O2510       O  0.51612334  0.61642145  0.78700979    -0.38500
O2511       O  0.62162790  0.52593713  0.91299319    -0.39200
O2512       O  0.61806500  0.55953002  0.97298878    -0.39300
C2513       C  0.92487207  0.60514015  0.14799768    -0.11600
C2514       C  0.90284407  0.59447419  0.18048311     0.05400
C2515       C  0.89720584  0.56568215  0.17717513    -0.06900
C2516       C  0.91719772  0.54797389  0.15410412    -0.07600
C2517       C  0.94116971  0.55864691  0.12840047    -0.02200
C2518       C  0.94459338  0.58752150  0.12363867     0.04700
N2519       N  0.96828602  0.59923723  0.09573249     0.67200
H2520       H  0.92636209  0.62705185  0.13913171     0.16100
H2521       H  0.91297038  0.52585890  0.15279767     0.15800
N2522       N  0.87038281  0.55438159  0.19155940     0.74900
O2523       O  0.96529973  0.60867787  0.04703163    -0.38600
O2524       O  0.98959656  0.60618592  0.12387214    -0.38500
O2525       O  0.85021837  0.55714584  0.15760736    -0.39200
O2526       O  0.86952068  0.53458436  0.22594406    -0.39300
C2527       C  0.84420173  0.68497542  0.34815425    -0.11600
C2528       C  0.83244228  0.66376182  0.31600791     0.05400
C2529       C  0.80276840  0.66120736  0.31458558    -0.06900
C2530       C  0.78626866  0.68360360  0.33161106    -0.07600
C2531       C  0.79869084  0.70689379  0.35602516    -0.02200
C2532       C  0.82796052  0.70742287  0.36491771     0.04700
N2533       N  0.84148845  0.73080545  0.38995151     0.67200
H2534       H  0.86618786  0.68442301  0.35985722     0.16100
H2535       H  0.76352016  0.68151701  0.33117436     0.15800
N2536       N  0.78915308  0.63524601  0.30300624     0.74900
O2537       O  0.84979482  0.72921644  0.43974613    -0.38600
O2538       O  0.85114972  0.74973619  0.35901227    -0.38500
O2539       O  0.79556232  0.61410038  0.33180007    -0.39200
O2540       O  0.76595123  0.63532512  0.27714197    -0.39300
C2541       C  0.81570706  0.82789658  0.70584624    -0.11600
C2542       C  0.83505560  0.84627455  0.68190337     0.05400
C2543       C  0.83832698  0.84577730  0.62333064    -0.06900
C2544       C  0.81727613  0.83371614  0.59097928    -0.07600
C2545       C  0.79504071  0.81962231  0.61603562    -0.02200
C2546       C  0.79503407  0.81541080  0.67378104     0.04700
N2547       N  0.77337894  0.80001608  0.70098374     0.67200
H2548       H  0.81629030  0.82325057  0.74972498     0.16100
H2549       H  0.81888273  0.83422893  0.54604209     0.15800
N2550       N  0.86357315  0.85480651  0.59627761     0.74900
O2551       O  0.75257655  0.81302129  0.72071201    -0.38600
O2552       O  0.77906242  0.77605858  0.71964047    -0.38500
O2553       O  0.88669667  0.84336669  0.60925130    -0.39200
O2554       O  0.86167453  0.86690056  0.54971912    -0.39300
C2555       C  0.93053874  0.91800499  0.81320075    -0.11600
C2556       C  0.90103898  0.91804597  0.81904192     0.05400
C2557       C  0.88818044  0.93952622  0.85062555    -0.06900
C2558       C  0.90491356  0.95581642  0.88434691    -0.07600
C2559       C  0.93409830  0.95477446  0.87986801    -0.02200
C2560       C  0.94715003  0.93615817  0.84364333     0.04700
N2561       N  0.97711201  0.93445850  0.83956514     0.67200
H2562       H  0.94089181  0.90475775  0.78342114     0.16100
H2563       H  0.89507146  0.97124479  0.91074677     0.15800
N2564       N  0.85911156  0.94749909  0.84438804     0.74900
O2565       O  0.99018932  0.91645273  0.86821912    -0.38600
O2566       O  0.98935413  0.94598137  0.79918268    -0.38500
O2567       O  0.84452932  0.95226807  0.88708672    -0.39200
O2568       O  0.85078147  0.95739713  0.79853529    -0.39300
C2569       C  0.92448011  0.59194015  0.91164963    -0.11600
C2570       C  0.91843533  0.56372185  0.90746384     0.05400
C2571       C  0.90151332  0.55376038  0.86445796    -0.06900
C2572       C  0.89189549  0.57210011  0.82445631    -0.07600
C2573       C  0.89984940  0.60024193  0.82466964    -0.02200
C2574       C  0.91415986  0.61063077  0.87224372     0.04700
N2575       N  0.91568993  0.63965595  0.88506319     0.67200
H2576       H  0.93666758  0.59952546  0.94659442     0.15100
H2577       H  0.87698104  0.56410139  0.79464235     0.15800
N2578       N  0.89507825  0.52492286  0.85877212     0.74900
O2579       O  0.93938906  0.65021787  0.89579036    -0.38600
O2580       O  0.89383359  0.65191329  0.90212711    -0.38500
O2581       O  0.87115719  0.51654743  0.87399093    -0.39200
O2582       O  0.90864261  0.51085086  0.82362362    -0.39300
C2583       C  0.80018146  0.70976080  0.68309234    -0.11600
C2584       C  0.79648255  0.70497746  0.62676064     0.05400
C2585       C  0.81303398  0.68493601  0.59922419    -0.06900
C2586       C  0.83255404  0.66954728  0.62912312    -0.07600
C2587       C  0.83456027  0.67223505  0.68665910    -0.02200
C2588       C  0.82024154  0.69469078  0.71285993     0.04700
N2589       N  0.82768796  0.70444381  0.76708431     0.67200
H2590       H  0.78862100  0.72624504  0.70331111     0.16100
H2591       H  0.84648427  0.65601108  0.60649152     0.15800
N2592       N  0.80960858  0.67920052  0.54130308     0.74900
O2593       O  0.80876239  0.70663989  0.80350364    -0.38600
O2594       O  0.84907388  0.71969116  0.77143011    -0.38500
O2595       O  0.82898465  0.68561871  0.50799424    -0.39200
O2596       O  0.79094792  0.66221461  0.52607373    -0.39300
C2597       C  0.58776139  0.94855552  0.81133921    -0.11600
C2598       C  0.58636948  0.91984893  0.82219390     0.05400
C2599       C  0.57005482  0.91073400  0.86785508    -0.06900
C2600       C  0.55204025  0.92967739  0.89353051    -0.07600
C2601       C  0.55014600  0.95720022  0.87456541    -0.02200
C2602       C  0.56793975  0.96665437  0.83256840     0.04700
N2603       N  0.56682100  0.99469187  0.81227426     0.67200
H2604       H  0.60415874  0.95727669  0.78580999     0.16100
H2605       H  0.53998685  0.92315214  0.92936229     0.15800
N2606       N  0.57410261  0.88402086  0.89344473     0.74900
O2607       O  0.58728352  0.01066860  0.82139601    -0.38600
O2608       O  0.54952548  0.50076236  0.77383273    -0.38500
O2609       O  0.59540377  0.88048687  0.92418522    -0.39200
O2610       O  0.55300902  0.86864066  0.90136210    -0.39300
C2611       C  0.70100500  0.83540755  0.65369720    -0.11600
C2612       C  0.68874383  0.81125732  0.63290165     0.05400
C2613       C  0.65953817  0.80909745  0.62914810    -0.06900
C2614       C  0.64296403  0.82998911  0.65138026    -0.07600
C2615       C  0.65505803  0.85086245  0.68406511    -0.02200
C2616       C  0.68439284  0.85560143  0.67911525     0.04700
N2617       N  0.69737340  0.88112883  0.69579235     0.67200
H2618       H  0.72341674  0.83883494  0.64902885     0.16100
H2619       H  0.62066297  0.82970799  0.64277205     0.15800
N2620       N  0.64644080  0.78558476  0.60427513     0.74900
O2621       O  0.72023252  0.88013478  0.72275189    -0.38600
O2622       O  0.69120780  0.90327042  0.66992288    -0.38500
O2623       O  0.63595522  0.76716690  0.63538520    -0.39200
O2624       O  0.63937080  0.78667135  0.55370441    -0.39300
C2625       C  0.82492012  0.80943404  0.39412333    -0.11600
C2626       C  0.79603241  0.81117358  0.38206825     0.05400
C2627       C  0.78560623  0.83394244  0.35079111    -0.06900
C2628       C  0.80439383  0.85255436  0.32786387    -0.07600
C2629       C  0.83343702  0.84827337  0.33223493    -0.02200
C2630       C  0.84366233  0.82870033  0.37167601     0.04700
N2631       N  0.87124533  0.83084110  0.39582653     0.67200
H2632       H  0.83267534  0.79402670  0.42361102     0.16100
H2633       H  0.79602617  0.87046528  0.30559649     0.15800
N2634       N  0.75623265  0.84012279  0.34517014     0.74900
O2635       O  0.88531467  0.80901841  0.40633568    -0.38600
O2636       O  0.87803845  0.85316972  0.41967879    -0.38500
O2637       O  0.74421699  0.85263172  0.38452208    -0.39200
O2638       O  0.74616677  0.84302009  0.29682823    -0.39300
C2639       C  0.91174954  0.90405748  0.14163300    -0.11600
C2640       C  0.89593636  0.91666187  0.18388344     0.05400
C2641       C  0.88630601  0.94446031  0.17474261    -0.06900
C2642       C  0.89877279  0.96050350  0.13370800    -0.07600
C2643       C  0.91863501  0.94870503  0.09870521    -0.02200
C2644       C  0.92302168  0.91985700  0.09900005     0.04700
N2645       N  0.93763188  0.90628584  0.05492001     0.67200
H2646       H  0.91410462  0.88174812  0.13933293     0.16100
H2647       H  0.89341426  0.98239531  0.13020351     0.15800
N2648       N  0.86307272  0.95646606  0.20390458     0.74900
O2649       O  0.96068490  0.89411914  0.06516337    -0.38600
O2650       O  0.92415216  0.89996749  0.01149771    -0.38500
O2651       O  0.86635227  0.97985042  0.22635339    -0.39200
O2652       O  0.83836963  0.94874261  0.19240742    -0.39300
C2653       C  0.67935642  0.69975072  0.34414811    -0.11600
C2654       C  0.69529610  0.68420436  0.38244081     0.05400
C2655       C  0.69560628  0.65521269  0.37922176    -0.06900
C2656       C  0.67802035  0.64251267  0.34061964    -0.07600
C2657       C  0.65828805  0.65832188  0.30915876    -0.02200
C2658       C  0.66190295  0.68733636  0.30554202     0.04700
N2659       N  0.64979773  0.70434170  0.26195182     0.67200
H2660       H  0.68086720  0.72194390  0.34377190     0.16100
H2661       H  0.67917956  0.62010682  0.33690785     0.15800
N2662       N  0.71138676  0.63849639  0.41769023     0.74900
O2663       O  0.64408474  0.72963605  0.27095496    -0.38600
O2664       O  0.64925596  0.69573918  0.21251290    -0.38500
O2665       O  0.69959066  0.62984667  0.46134171    -0.39200
O2666       O  0.73438102  0.62763031  0.40272766    -0.39300
C2667       C  0.55610001  0.58112291  0.09608819    -0.11600
C2668       C  0.54057090  0.56137733  0.12631688     0.05400
C2669       C  0.54026946  0.56281634  0.18443723    -0.06900
C2670       C  0.55710904  0.58226533  0.21096196    -0.07600
C2671       C  0.57706057  0.59799844  0.18139841    -0.02200
C2672       C  0.57383283  0.60005670  0.12289244     0.04700
N2673       N  0.58685702  0.62164247  0.09034113     0.67200
H2674       H  0.55475375  0.58161312  0.05114621     0.16100
H2675       H  0.55484922  0.58444844  0.25534053     0.15800
N2676       N  0.52364585  0.54434203  0.21730778     0.74900
O2677       O  0.59286814  0.61732739  0.04003221    -0.38600
O2678       O  0.58816087  0.64619577  0.10855162    -0.38500
O2679       O  0.53511994  0.52298984  0.23851815    -0.39200
O2680       O  0.50012230  0.55253280  0.23541385    -0.39300
loop_ 
_geom_bond_atom_site_label_1 
_geom_bond_atom_site_label_2 
_geom_bond_distance 
_geom_bond_site_symmetry_2 
_ccdc_geom_bond_type 
C1            C3   1.565       .  S
C1            C5   1.566       .  S
C1            C4   1.546       .  S
C1          C661   1.520       .  S
C2            C6   1.534       .  S
C2            C8   1.541       .  S
C2            C7   1.555       .  S
C2          C647   1.502       .  S
C3           C11   1.403       .  A
C3            C6   1.383       .  A
C4           C15   1.388       .  A
C4            C7   1.384       .  A
C5           C19   1.397       .  A
C5            C8   1.382       .  A
C6            C9   1.383       .  A
C7           C13   1.397       .  A
C8           C16   1.388       .  A
C9           N10   1.357       .  A
C9           H22   1.083       .  S
N10          C11   1.372       .  A
N10         C284   1.466       .  S
C11          H12   1.081       .  S
C13          N14   1.367       .  A
C13          H23   1.081       .  S
N14          C15   1.363       .  A
N14          C44   1.466       .  S
C15          H21   1.082       .  S
C16          N17   1.354       .  A
C16          H18   1.082       .  S
N17          C19   1.364       .  A
N17         C101   1.458       .  S
C19          H20   1.082       .  S
N24          C29   1.361       .  A
N24        C1368   1.361       .  A
N24          H56   1.040       .  S
N25          C32   1.361       .  A
N25          C33   1.361       .  A
N26          C31   1.360       .  A
N26        C1370   1.359       .  A
N26          H57   1.040       .  S
N27          C34   1.361       .  A
N27          C35   1.361       .  A
C28          C36   1.385       .  A
C28          C44   1.426       .  A
C28        N1364   1.361   1_455  A
C29          C45   1.430       .  A
C29          C37   1.387       .  A
C30          C38   1.385       .  A
C30          C47   1.423       .  A
C30        N1366   1.359   1_455  A
C31          C46   1.425       .  A
C31          C39   1.387       .  A
C32          C44   1.427       .  A
C32          C40   1.384       .  A
C33          C47   1.428       .  A
C33          C41   1.385       .  A
C34          C42   1.387       .  A
C34          C45   1.432       .  A
C35          C43   1.385       .  A
C35          C46   1.429       .  A
C36        C1377   1.380   1_455  A
C36          H48   1.082       .  S
C37        C1376   1.380       .  A
C37          H49   1.082       .  S
C38        C1379   1.379   1_455  A
C38          H50   1.082       .  S
C39        C1378   1.379       .  A
C39          H51   1.082       .  S
C40          C41   1.379       .  A
C40          H52   1.080       .  S
C41          H53   1.082       .  S
C42          C43   1.380       .  A
C42          H54   1.082       .  S
C43          H55   1.082       .  S
C45         N333   1.470       .  S
C46          N74   1.465       .  S
C47         N379   1.463       .  S
C58          C60   1.560       .  S
C58          C62   1.551       .  S
C58          C61   1.552       .  S
C58         C619   1.505       .  S
C59          C63   1.530       .  S
C59          C65   1.564       .  S
C59          C64   1.551       .  S
C59         C630   1.500       .  S
C60          C68   1.399       .  A
C60          C63   1.370       .  A
C61          C72   1.396       .  A
C61          C64   1.382       .  A
C62          C76   1.390       .  A
C62          C65   1.391       .  A
C63          C66   1.386       .  A
C64          C70   1.395       .  A
C65          C73   1.396       .  A
C66          N67   1.355       .  A
C66          H79   1.083       .  S
N67          C68   1.367       .  A
N67         C249   1.460       .  S
C68          H69   1.082       .  S
C70          N71   1.365       .  A
C70          H80   1.081       .  S
N71          C72   1.368       .  A
N71         C135   1.470       .  S
C72          H78   1.082       .  S
C73          N74   1.366       .  A
C73          H75   1.081       .  S
N74          C76   1.361       .  A
C76          H77   1.080       .  S
N81          C85   1.354       .  A
N81         C756   1.354   1_545  A
N81         H113   1.048       .  S
N82          C89   1.360       .  A
N82          C90   1.358       .  A
N83          C87   1.358       .  A
N83         C758   1.360   1_545  A
N83         H114   1.048       .  S
N84          C91   1.354       .  A
N84          C92   1.355       .  A
C85          C93   1.386       .  A
C85         C101   1.415       .  A
C86         C102   1.413       .  A
C86          C94   1.382       .  A
C86         N751   1.354       .  A
C87          C95   1.387       .  A
C87         C104   1.427       .  A
C88         C103   1.427       .  A
C88          C96   1.386       .  A
C88         N753   1.360       .  A
C89         C101   1.425       .  A
C89          C97   1.385       .  A
C90         C104   1.427       .  A
C90          C98   1.387       .  A
C91          C99   1.382       .  A
C91         C102   1.416       .  A
C92         C100   1.384       .  A
C92         C103   1.415       .  A
C93         C764   1.379   1_545  A
C93         H105   1.082       .  S
C94         C763   1.379       .  A
C94         H106   1.081       .  S
C95         C766   1.381   1_545  A
C95         H107   1.082       .  S
C96         C765   1.381       .  A
C96         H108   1.082       .  S
C97          C98   1.379       .  A
C97         H109   1.082       .  S
C98         H110   1.082       .  S
C99         C100   1.379       .  A
C99         H111   1.081       .  S
C100        H112   1.082       .  S
C102        N382   1.453       .  S
C103        N165   1.458       .  S
C104        N359   1.460       .  S
N115        C120   1.363       .  A
N115        C789   1.365   1_545  A
N115        H147   1.034       .  S
N116        C123   1.359       .  A
N116        C124   1.357       .  A
N117        C122   1.365       .  A
N117        C791   1.365   1_545  A
N117        H148   1.028       .  S
N118        C125   1.361       .  A
N118        C126   1.360       .  A
C119        C127   1.382       .  A
C119        C135   1.430       .  A
C119        N785   1.365       .  A
C120        C136   1.430       .  A
C120        C128   1.383       .  A
C121        C129   1.384       .  A
C121        C138   1.433       .  A
C121        N787   1.365       .  A
C122        C137   1.432       .  A
C122        C130   1.386       .  A
C123        C135   1.421       .  A
C123        C131   1.384       .  A
C124        C138   1.423       .  A
C124        C132   1.383       .  A
C125        C133   1.385       .  A
C125        C136   1.426       .  A
C126        C134   1.386       .  A
C126        C137   1.428       .  A
C127        C798   1.384       .  A
C127        H139   1.081       .  S
C128        C797   1.384   1_545  A
C128        H140   1.081       .  S
C129        C800   1.383       .  A
C129        H141   1.079       .  S
C130        C799   1.383   1_545  A
C130        H142   1.082       .  S
C131        C132   1.379       .  A
C131        H143   1.082       .  S
C132        H144   1.081       .  S
C133        C134   1.377       .  A
C133        H145   1.082       .  S
C134        H146   1.082       .  S
C136        N329   1.469       .  S
C137        N215   1.467       .  S
C138        N310   1.467       .  S
C149        C151   1.546       .  S
C149        C153   1.559       .  S
C149        C152   1.551       .  S
C149        C588   1.509       .  S
C150        C154   1.551       .  S
C150        C156   1.538       .  S
C150        C155   1.564       .  S
C150        C605   1.506       .  S
C151        C159   1.393       .  A
C151        C154   1.383       .  A
C152        C163   1.393       .  A
C152        C155   1.389       .  A
C153        C167   1.395       .  A
C153        C156   1.378       .  A
C154        C157   1.393       .  A
C155        C161   1.394       .  A
C156        C164   1.393       .  A
C157        N158   1.366       .  A
C157        H170   1.082       .  S
N158        C159   1.364       .  A
N158        C251   1.466       .  S
C159        H160   1.082       .  S
C161        N162   1.360       .  A
C161        H171   1.079       .  S
N162        C163   1.366       .  A
N162        C192   1.467       .  S
C163        H169   1.080       .  S
C164        N165   1.362       .  A
C164        H166   1.082       .  S
N165        C167   1.356       .  A
C167        H168   1.081       .  S
N172        C177   1.363       .  A
N172        C176   1.362       .  A
N172        H204   1.038       .  S
N173        C181   1.359       .  A
N173       C1520   1.359       .  A
N174        C179   1.358       .  A
N174        C178   1.359       .  A
N174        H205   1.040       .  S
N175        C183   1.358       .  A
N175       C1522   1.356       .  A
C176        C184   1.388       .  A
C176        C192   1.434       .  A
C177        C193   1.428       .  A
C177        C185   1.384       .  A
C178        C186   1.384       .  A
C178        C195   1.420       .  A
C179        C194   1.423       .  A
C179        C187   1.383       .  A
C180        C192   1.426       .  A
C180        C188   1.387       .  A
C180       N1513   1.359   1_455  A
C181        C195   1.423       .  A
C181        C189   1.384       .  A
C182        C190   1.386       .  A
C182        C193   1.423       .  A
C182       N1515   1.356   1_455  A
C183        C191   1.384       .  A
C183        C194   1.420       .  A
C184        C185   1.382       .  A
C184        H196   1.082       .  S
C185        H197   1.082       .  S
C186        C187   1.379       .  A
C186        H198   1.082       .  S
C187        H199   1.078       .  S
C188       C1529   1.376   1_455  A
C188        H200   1.081       .  S
C189       C1528   1.376       .  A
C189        H201   1.082       .  S
C190       C1531   1.377   1_455  A
C190        H202   1.082       .  S
C191       C1530   1.377       .  A
C191        H203   1.082       .  S
C193        N356   1.462       .  S
C194        N219   1.461       .  S
C195        N313   1.460       .  S
C206        C208   1.570       .  S
C206        C210   1.540       .  S
C206        C209   1.544       .  S
C206        C577   1.499       .  S
C207        C211   1.559       .  S
C207        C213   1.536       .  S
C207        C212   1.543       .  S
C207        C563   1.495       .  S
C208        C216   1.402       .  A
C208        C211   1.389       .  A
C209        C220   1.387       .  A
C209        C212   1.382       .  A
C210        C224   1.390       .  A
C210        C213   1.370       .  A
C211        C214   1.395       .  A
C212        C218   1.390       .  A
C213        C221   1.386       .  A
C214        N215   1.361       .  A
C214        H227   1.082       .  S
N215        C216   1.365       .  A
C216        H217   1.081       .  S
C218        N219   1.363       .  A
C218        H228   1.080       .  S
N219        C220   1.363       .  A
C220        H226   1.082       .  S
C221        N222   1.360       .  A
C221        H223   1.082       .  S
N222        C224   1.362       .  A
N222        C286   1.458       .  S
C224        H225   1.081       .  S
N229        C234   1.358       .  A
N229        C233   1.357       .  A
N229        H261   1.043       .  S
N230        C237   1.361       .  A
N230        C238   1.362   1_554  A
N231        C236   1.359       .  A
N231        C235   1.361       .  A
N231        H262   1.043       .  S
N232        C239   1.361       .  A
N232        C240   1.361   1_554  A
C233        C241   1.387       .  A
C233        C249   1.421       .  A
C234        C250   1.421       .  A
C234        C242   1.386       .  A
C235        C243   1.386       .  A
C235        C252   1.427       .  A
C236        C251   1.423       .  A
C236        C244   1.383       .  A
C237        C249   1.429       .  A
C237        C245   1.385       .  A
C238        C252   1.432       .  A
C238        C246   1.386       .  A
C239        C247   1.387       .  A
C239        C250   1.431       .  A
C240        C248   1.383       .  A
C240        C251   1.427       .  A
C241        C242   1.376       .  A
C241        H253   1.082       .  S
C242        H254   1.082       .  S
C243        C244   1.379       .  A
C243        H255   1.082       .  S
C244        H256   1.082       .  S
C245        C246   1.380   1_554  A
C245        H257   1.082       .  S
C246        H258   1.081       .  S
C247        C248   1.381   1_554  A
C247        H259   1.082       .  S
C248        H260   1.079       .  S
C250        N375   1.464       .  S
C252        N306   1.471       .  S
N263        C268   1.363       .  A
N263        C267   1.362       .  A
N263        H295   1.040       .  S
N264        C271   1.357   1_556  A
N264        C272   1.356       .  A
N265        C270   1.356       .  A
N265        C269   1.358       .  A
N265        H296   1.042       .  S
N266        C273   1.358   1_556  A
N266        C274   1.359       .  A
C267        C275   1.384       .  A
C267        C283   1.429       .  A
C268        C284   1.433       .  A
C268        C276   1.387       .  A
C269        C277   1.385       .  A
C269        C286   1.418       .  A
C270        C285   1.419       .  A
C270        C278   1.383       .  A
C271        C283   1.419       .  A
C271        C279   1.384       .  A
C272        C286   1.421       .  A
C272        C280   1.384       .  A
C273        C281   1.385       .  A
C273        C284   1.424       .  A
C274        C282   1.385       .  A
C274        C285   1.425       .  A
C275        C276   1.383       .  A
C275        H287   1.082       .  S
C276        H288   1.082       .  S
C277        C278   1.378       .  A
C277        H289   1.082       .  S
C278        H290   1.080       .  S
C279        C280   1.377   1_554  A
C279        H291   1.082       .  S
C280        H292   1.079       .  S
C281        C282   1.379   1_554  A
C281        H293   1.081       .  S
C282        H294   1.082       .  S
C283        N336   1.463       .  S
C285        N352   1.461       .  S
C297        C299   1.548       .  S
C297        C301   1.551       .  S
C297        C300   1.540       .  S
C297        C546   1.502       .  S
C298        C302   1.572       .  S
C298        C304   1.544       .  S
C298        C303   1.558       .  S
C298        C532   1.513       .  S
C299        C307   1.392       .  A
C299        C302   1.384       .  A
C300        C311   1.390       .  A
C300        C303   1.379       .  A
C301        C315   1.392       .  A
C301        C304   1.384       .  A
C302        C305   1.403       .  A
C303        C309   1.398       .  A
C304        C312   1.388       .  A
C305        N306   1.367       .  A
C305        H318   1.081       .  S
N306        C307   1.360       .  A
C307        H308   1.081       .  S
C309        N310   1.369       .  A
C309        H319   1.081       .  S
N310        C311   1.361       .  A
C311        H317   1.083       .  S
C312        N313   1.362       .  A
C312        H314   1.082       .  S
N313        C315   1.363       .  A
C315        H316   1.081       .  S
C320        C322   1.560       .  S
C320        C324   1.548       .  S
C320        C323   1.565       .  S
C320        C504   1.516       .  S
C321        C325   1.542       .  S
C321        C327   1.548       .  S
C321        C326   1.564       .  S
C321        C518   1.511       .  S
C322        C330   1.398       .  A
C322        C325   1.383       .  A
C323        C334   1.402       .  A
C323        C326   1.387       .  A
C324        C338   1.393       .  A
C324        C327   1.382       .  A
C325        C328   1.391       .  A
C326        C332   1.399       .  A
C327        C335   1.392       .  A
C328        N329   1.364       .  A
C328        H341   1.082       .  S
N329        C330   1.367       .  A
C330        H331   1.081       .  S
C332        N333   1.359       .  A
C332        H342   1.079       .  S
N333        C334   1.363       .  A
C334        H340   1.079       .  S
C335        N336   1.360       .  A
C335        H337   1.081       .  S
N336        C338   1.365       .  A
C338        H339   1.082       .  S
C343        C345   1.552       .  S
C343        C347   1.537       .  S
C343        C346   1.564       .  S
C343        C476   1.515       .  S
C344        C348   1.551       .  S
C344        C350   1.535       .  S
C344        C349   1.555       .  S
C344        C493   1.511       .  S
C345        C353   1.395       .  A
C345        C348   1.382       .  A
C346        C357   1.395       .  A
C346        C349   1.398       .  A
C347        C361   1.386       .  A
C347        C350   1.374       .  A
C348        C351   1.388       .  A
C349        C355   1.389       .  A
C350        C358   1.389       .  A
C351        N352   1.356       .  A
C351        H364   1.081       .  S
N352        C353   1.367       .  A
C353        H354   1.082       .  S
C355        N356   1.363       .  A
C355        H365   1.080       .  S
N356        C357   1.362       .  A
C357        H363   1.081       .  S
C358        N359   1.365       .  A
C358        H360   1.082       .  S
N359        C361   1.362       .  A
C361        H362   1.082       .  S
C366        C368   1.563       .  S
C366        C370   1.546       .  S
C366        C369   1.539       .  S
C366        C462   1.497       .  S
C367        C371   1.531       .  S
C367        C373   1.544       .  S
C367        C372   1.563       .  S
C367        C451   1.496       .  S
C368        C376   1.401       .  A
C368        C371   1.374       .  A
C369        C380   1.386       .  A
C369        C372   1.386       .  A
C370        C384   1.387       .  A
C370        C373   1.382       .  A
C371        C374   1.384       .  A
C372        C378   1.397       .  A
C373        C381   1.390       .  A
C374        N375   1.355       .  A
C374        H387   1.082       .  S
N375        C376   1.370       .  A
C376        H377   1.081       .  S
C378        N379   1.367       .  A
C378        H388   1.081       .  S
N379        C380   1.360       .  A
C380        H386   1.082       .  S
C381        N382   1.361       .  A
C381        H383   1.082       .  S
N382        C384   1.357       .  A
C384        H385   1.081       .  S
O389        C397   1.268       .  A
O389      Co1749   2.021   1_445  S
O390        C398   1.285       .  A
O390       Co410   2.030       .  S
O391        C399   1.269       .  A
O391       Co411   1.890       .  S
O392        C400   1.253       .  A
O392       Co412   1.972   1_554  S
O393        C399   1.288       .  A
O393      Co1750   2.032   1_455  S
O394        C400   1.265       .  A
O394       Co409   2.000   1_545  S
O395        C398   1.264       .  A
O395       Co412   1.880       .  S
O396        C397   1.250       .  A
O396       Co411   1.960   1_554  S
C397        C658   1.467       .  S
C398        C560   1.428       .  S
C399        C490   1.461       .  S
C400        C507   1.450       .  S
O401        C414   1.254       .  A
O401      Co1079   1.952       .  S
O402        C415   1.245       .  A
O402      Co2420   1.975   1_455  S
O403        C416   1.266       .  A
O403      Co1081   1.987   1_554  S
O404        C417   1.235       .  A
O404      Co1082   1.923       .  S
O405        C417   1.249       .  A
O405      Co1080   1.978       .  S
O406        C416   1.249       .  A
O406      Co2419   1.935   1_455  S
O407        C414   1.262       .  A
O407      Co1082   1.984   1_554  S
O408        C415   1.234       .  A
O408      Co1081   1.934       .  S
Co409      O1729   2.021   1_565  S
Co409      O1071   1.952       .  S
Co409      O2416   1.934       .  S
Co409       O413   2.049       .  S
Co410      O1733   2.032       .  S
Co410      O2412   1.975   1_545  S
Co410      O1075   1.978   1_545  S
Co410       O413   2.227   1_546  S
Co411      O1073   1.987   1_546  S
Co411      O1078   1.934   1_545  S
Co411      O1753   1.883   1_446  S
Co412      O1074   1.923   1_545  S
Co412      O1077   1.984   1_546  S
Co412       O413   1.894   1_546  S
O413      Co1751   1.883   1_564  S
C414        C633   1.441       .  S
C415        C591   1.439       .  S
C416        C448   1.438       .  S
C417        C549   1.436       .  S
O418        C426   1.251       .  A
O418       Co438   1.935       .  S
O419        C427   1.266       .  A
O419       Co439   1.873       .  S
O420        C428   1.278       .  A
O420       Co440   2.029       .  S
O421        C429   1.259       .  A
O421       Co441   1.998       .  S
O422        C428   1.263       .  A
O422       Co439   1.939       .  S
O423        C429   1.242       .  A
O423       Co438   1.928       .  S
O424        C427   1.291       .  A
O424       Co441   2.095       .  S
O425        C426   1.269       .  A
O425       Co440   2.007       .  S
C426        C521   1.444       .  S
C427        C535   1.448       .  S
C428        C616   1.455       .  S
C429        C574   1.439       .  S
O430        C443   1.281       .  A
O430       Co438   2.019       .  S
O431        C444   1.258       .  A
O431       Co439   1.988       .  S
O432        C445   1.252       .  A
O432       Co440   1.931       .  S
O433        C446   1.266       .  A
O433       Co441   1.879       .  S
O434        C446   1.285       .  A
O434       Co439   2.075       .  S
O435        C445   1.269       .  A
O435       Co438   2.022       .  S
O436        C443   1.266       .  A
O436       Co441   1.951       .  S
O437        C444   1.242       .  A
O437       Co440   1.925       .  S
Co438       O442   1.971       .  S
Co439       O442   1.961       .  S
Co440       O442   1.972       .  S
Co441       O442   1.978       .  S
C443        C479   1.460       .  S
C444        C465   1.425       .  S
C445        C644   1.452       .  S
C446        C602   1.433       .  S
C447        C448   1.386       .  A
C447        C452   1.384       .  A
C447        H454   1.085       .  S
C448        C449   1.404       .  A
C449        C450   1.380       .  A
C449        N456   1.427       .  S
C450        C451   1.398       .  A
C450        H455   1.077       .  S
C451        C452   1.428       .  A
C452        N453   1.432       .  S
N453        O457   1.261       .  A
N453        O458   1.262       .  A
N456        O460   1.260       .  A
N456        O459   1.261       .  A
C461        C462   1.393       .  A
C461        C466   1.377       .  A
C461        H468   1.081       .  S
C462        C463   1.422       .  A
C463        C464   1.388       .  A
C463        N470   1.436       .  S
C464        C465   1.383       .  A
C464        H469   1.085       .  S
C465        C466   1.408       .  A
C466        N467   1.428       .  S
N467        O471   1.257       .  A
N467        O472   1.260       .  A
N470        O474   1.263       .  A
N470        O473   1.261       .  A
C475        C476   1.407       .  A
C475        C480   1.394       .  A
C475        H482   1.079       .  S
C476        C477   1.427       .  A
C477        C478   1.393       .  A
C477        N484   1.439       .  S
C478        C479   1.394       .  A
C478        H483   1.084       .  S
C479        C480   1.404       .  A
C480        N481   1.432       .  S
N481        O485   1.262       .  A
N481        O486   1.261       .  A
N484        O488   1.263       .  A
N484        O487   1.261       .  A
C489        C490   1.407       .  A
C489        C494   1.394       .  A
C489        H496   1.083       .  S
C490        C491   1.405       .  A
C491        C492   1.385       .  A
C491        N498   1.431       .  S
C492        C493   1.407       .  A
C492        H497   1.083       .  S
C493        C494   1.410       .  A
C494        N495   1.435       .  S
N495        O499   1.262       .  A
N495        O500   1.263       .  A
N498        O502   1.262       .  A
N498        O501   1.262       .  A
C503        C504   1.406       .  A
C503        C508   1.391       .  A
C503        H510   1.075       .  S
C504        C505   1.412       .  A
C505        C506   1.390       .  A
C505        N512   1.430       .  S
C506        C507   1.396       .  A
C506        H511   1.082       .  S
C507        C508   1.401       .  A
C508        N509   1.429       .  S
N509        O513   1.261       .  A
N509        O514   1.262       .  A
N512        O516   1.258       .  A
N512        O515   1.261       .  A
C517        C518   1.399       .  A
C517        C522   1.384       .  A
C517        H524   1.079       .  S
C518        C519   1.414       .  A
C519        C520   1.391       .  A
C519        N526   1.436       .  S
C520        C521   1.398       .  A
C520        H525   1.085       .  S
C521        C522   1.405       .  A
C522        N523   1.431       .  S
N523        O527   1.262       .  A
N523        O528   1.262       .  A
N526        O530   1.262       .  A
N526        O529   1.261       .  A
C531        C532   1.401       .  A
C531        C536   1.386       .  A
C531        H538   1.078       .  S
C532        C533   1.419       .  A
C533        C534   1.394       .  A
C533        N540   1.434       .  S
C534        C535   1.395       .  A
C534        H539   1.085       .  S
C535        C536   1.403       .  A
C536        N537   1.429       .  S
N537        O541   1.261       .  A
N537        O542   1.260       .  A
N540        O544   1.262       .  A
N540        O543   1.261       .  A
C545        C546   1.407       .  A
C545        C550   1.388       .  A
C545        H552   1.079       .  S
C546        C547   1.421       .  A
C547        C548   1.382       .  A
C547        N554   1.436       .  S
C548        C549   1.390       .  A
C548        H553   1.084       .  S
C549        C550   1.396       .  A
C550        N551   1.427       .  S
N551        O555   1.261       .  A
N551        O556   1.262       .  A
N554        O558   1.260       .  A
N554        O557   1.263       .  A
C559        C560   1.391       .  A
C559        C564   1.388       .  A
C559        H566   1.084       .  S
C560        C561   1.395       .  A
C561        C562   1.376       .  A
C561        N568   1.427       .  S
C562        C563   1.405       .  A
C562        H567   1.079       .  S
C563        C564   1.422       .  A
C564        N565   1.431       .  S
N565        O569   1.262       .  A
N565        O570   1.261       .  A
N568        O572   1.262       .  A
N568        O571   1.262       .  A
C573        C574   1.387       .  A
C573        C578   1.387       .  A
C573        H580   1.080       .  S
C574        C575   1.409       .  A
C575        C576   1.379       .  A
C575        N582   1.431       .  S
C576        C577   1.394       .  A
C576        H581   1.076       .  S
C577        C578   1.423       .  A
C578        N579   1.432       .  S
N579        O583   1.262       .  A
N579        O584   1.259       .  A
N582        O586   1.262       .  A
N582        O585   1.261       .  A
C587        C588   1.404       .  A
C587        C592   1.379       .  A
C587        H594   1.079       .  S
C588        C589   1.416       .  A
C589        C590   1.393       .  A
C589        N596   1.431       .  S
C590        C591   1.398       .  A
C590        H595   1.083       .  S
C591        C592   1.396       .  A
C592        N593   1.430       .  S
N593        O597   1.260       .  A
N593       O1268   1.262       .  A
N596        O600   1.262       .  A
N596        O599   1.260       .  A
O598       N1263   1.262   1_545  A
C601        C602   1.395       .  A
C601        C606   1.392       .  A
C601        H608   1.083       .  S
C602        C603   1.393       .  A
C603        C604   1.382       .  A
C603        N610   1.425       .  S
C604        C605   1.401       .  A
C604        H609   1.077       .  S
C605        C606   1.417       .  A
C606        N607   1.433       .  S
N607        O611   1.262       .  A
N607        O612   1.261       .  A
N610        O614   1.262       .  A
N610        O613   1.262       .  A
C615        C616   1.402       .  A
C615        C620   1.396       .  A
C615        H622   1.084       .  S
C616        C617   1.410       .  A
C617        C618   1.381       .  A
C617        N624   1.429       .  S
C618        C619   1.395       .  A
C618        H623   1.083       .  S
C619        C620   1.414       .  A
C620        N621   1.434       .  S
N621        O625   1.263       .  A
N621        O626   1.262       .  A
N624        O628   1.262       .  A
N624        O627   1.261       .  A
C629        C630   1.404       .  A
C629        C634   1.384       .  A
C629        H636   1.078       .  S
C630        C631   1.424       .  A
C631        C632   1.386       .  A
C631        N638   1.430       .  S
C632        C633   1.387       .  A
C632        H637   1.083       .  S
C633        C634   1.400       .  A
C634        N635   1.428       .  S
N635        O639   1.260       .  A
N635        O640   1.262       .  A
N638        O642   1.261       .  A
N638        O641   1.259       .  A
C643        C644   1.399       .  A
C643        C648   1.382       .  A
C643        H650   1.068       .  S
C644        C645   1.395       .  A
C645        C646   1.391       .  A
C645        N652   1.428       .  S
C646        C647   1.416       .  A
C646        H651   1.081       .  S
C647        C648   1.407       .  A
C648        N649   1.441       .  S
N649        O653   1.263       .  A
N649        O654   1.262       .  A
N652        O656   1.261       .  A
N652        O655   1.262       .  A
C657        C658   1.406       .  A
C657        C662   1.400       .  A
C657        H664   1.083       .  S
C658        C659   1.401       .  A
C659        C660   1.389       .  A
C659        N666   1.429       .  S
C660        C661   1.408       .  A
C660        H665   1.080       .  S
C661        C662   1.419       .  A
C662        N663   1.440       .  S
N663        O667   1.263       .  A
N663        O668   1.262       .  A
N666        O670   1.262       .  A
N666        O669   1.262       .  A
C671        C673   1.565       .  S
C671        C675   1.566       .  S
C671        C674   1.546       .  S
C671       C1331   1.520       .  S
C672        C676   1.534       .  S
C672        C678   1.541       .  S
C672        C677   1.555       .  S
C672       C1317   1.502       .  S
C673        C681   1.403       .  A
C673        C676   1.383       .  A
C674        C685   1.388       .  A
C674        C677   1.384       .  A
C675        C689   1.397       .  A
C675        C678   1.382       .  A
C676        C679   1.383       .  A
C677        C683   1.397       .  A
C678        C686   1.388       .  A
C679        N680   1.357       .  A
C679        H692   1.083       .  S
N680        C681   1.372       .  A
N680        C954   1.466       .  S
C681        H682   1.081       .  S
C683        N684   1.367       .  A
C683        H693   1.081       .  S
N684        C685   1.363       .  A
N684        C714   1.466       .  S
C685        H691   1.082       .  S
C686        N687   1.354       .  A
C686        H688   1.082       .  S
N687        C689   1.364       .  A
N687        C771   1.458       .  S
C689        H690   1.082       .  S
N694        C699   1.361       .  A
N694       C2038   1.361       .  A
N694        H726   1.040       .  S
N695        C702   1.361       .  A
N695        C703   1.361       .  A
N696        C701   1.360       .  A
N696       C2040   1.359       .  A
N696        H727   1.040       .  S
N697        C704   1.361       .  A
N697        C705   1.361       .  A
C698        C706   1.385       .  A
C698        C714   1.426       .  A
C698       N2034   1.361   1_455  A
C699        C715   1.430       .  A
C699        C707   1.387       .  A
C700        C708   1.385       .  A
C700        C717   1.423       .  A
C700       N2036   1.359   1_455  A
C701        C716   1.425       .  A
C701        C709   1.387       .  A
C702        C714   1.428       .  A
C702        C710   1.384       .  A
C703        C717   1.428       .  A
C703        C711   1.385       .  A
C704        C712   1.387       .  A
C704        C715   1.432       .  A
C705        C713   1.385       .  A
C705        C716   1.429       .  A
C706       C2047   1.380   1_455  A
C706        H718   1.082       .  S
C707       C2046   1.380       .  A
C707        H719   1.082       .  S
C708       C2049   1.379   1_455  A
C708        H720   1.082       .  S
C709       C2048   1.379       .  A
C709        H721   1.082       .  S
C710        C711   1.379       .  A
C710        H722   1.080       .  S
C711        H723   1.082       .  S
C712        C713   1.380       .  A
C712        H724   1.082       .  S
C713        H725   1.082       .  S
C715       N1003   1.470       .  S
C716        N744   1.465       .  S
C717       N1049   1.463       .  S
C728        C730   1.560       .  S
C728        C732   1.551       .  S
C728        C731   1.552       .  S
C728       C1289   1.505       .  S
C729        C733   1.530       .  S
C729        C735   1.564       .  S
C729        C734   1.551       .  S
C729       C1300   1.500       .  S
C730        C738   1.399       .  A
C730        C733   1.370       .  A
C731        C742   1.396       .  A
C731        C734   1.382       .  A
C732        C746   1.390       .  A
C732        C735   1.391       .  A
C733        C736   1.386       .  A
C734        C740   1.395       .  A
C735        C743   1.396       .  A
C736        N737   1.355       .  A
C736        H749   1.083       .  S
N737        C738   1.367       .  A
N737        C919   1.460       .  S
C738        H739   1.082       .  S
C740        N741   1.365       .  A
C740        H750   1.081       .  S
N741        C742   1.368       .  A
N741        C805   1.470       .  S
C742        H748   1.082       .  S
C743        N744   1.366       .  A
C743        H745   1.081       .  S
N744        C746   1.361       .  A
C746        H747   1.080       .  S
N751        C755   1.354       .  A
N751        H783   1.048       .  S
N752        C759   1.360       .  A
N752        C760   1.358       .  A
N753        C757   1.358       .  A
N753        H784   1.048       .  S
N754        C761   1.354       .  A
N754        C762   1.355       .  A
C755        C763   1.386       .  A
C755        C771   1.415       .  A
C756        C772   1.413       .  A
C756        C764   1.382       .  A
C757        C765   1.387       .  A
C757        C774   1.427       .  A
C758        C773   1.427       .  A
C758        C766   1.386       .  A
C759        C771   1.425       .  A
C759        C767   1.385       .  A
C760        C774   1.427       .  A
C760        C768   1.387       .  A
C761        C769   1.382       .  A
C761        C772   1.416       .  A
C762        C770   1.384       .  A
C762        C773   1.415       .  A
C763        H775   1.082       .  S
C764        H776   1.081       .  S
C765        H777   1.082       .  S
C766        H778   1.082       .  S
C767        C768   1.379       .  A
C767        H779   1.082       .  S
C768        H780   1.082       .  S
C769        C770   1.379       .  A
C769        H781   1.082       .  S
C770        H782   1.082       .  S
C772       N1052   1.453       .  S
C773        N835   1.458       .  S
C774       N1029   1.460       .  S
N785        C790   1.363       .  A
N785        H817   1.033       .  S
N786        C793   1.359       .  A
N786        C794   1.357       .  A
N787        C792   1.365       .  A
N787        H818   1.028       .  S
N788        C795   1.361       .  A
N788        C796   1.360       .  A
C789        C797   1.382       .  A
C789        C805   1.430       .  A
C790        C806   1.430       .  A
C790        C798   1.383       .  A
C791        C799   1.384       .  A
C791        C808   1.433       .  A
C792        C807   1.432       .  A
C792        C800   1.386       .  A
C793        C805   1.421       .  A
C793        C801   1.384       .  A
C794        C808   1.423       .  A
C794        C802   1.383       .  A
C795        C803   1.385       .  A
C795        C806   1.426       .  A
C796        C804   1.386       .  A
C796        C807   1.428       .  A
C797        H809   1.081       .  S
C798        H810   1.081       .  S
C799        H811   1.079       .  S
C800        H812   1.082       .  S
C801        C802   1.379       .  A
C801        H813   1.082       .  S
C802        H814   1.081       .  S
C803        C804   1.377       .  A
C803        H815   1.082       .  S
C804        H816   1.082       .  S
C806        N999   1.469       .  S
C807        N885   1.467       .  S
C808        N980   1.467       .  S
C819        C821   1.546       .  S
C819        C823   1.559       .  S
C819        C822   1.551       .  S
C819       C1258   1.509       .  S
C820        C824   1.551       .  S
C820        C826   1.538       .  S
C820        C825   1.564       .  S
C820       C1275   1.506       .  S
C821        C829   1.393       .  A
C821        C824   1.383       .  A
C822        C833   1.393       .  A
C822        C825   1.389       .  A
C823        C837   1.395       .  A
C823        C826   1.378       .  A
C824        C827   1.393       .  A
C825        C831   1.394       .  A
C826        C834   1.393       .  A
C827        N828   1.366       .  A
C827        H840   1.082       .  S
N828        C829   1.364       .  A
N828        C921   1.466       .  S
C829        H830   1.082       .  S
C831        N832   1.360       .  A
C831        H841   1.079       .  S
N832        C833   1.366       .  A
N832        C862   1.467       .  S
C833        H839   1.080       .  S
C834        N835   1.362       .  A
C834        H836   1.082       .  S
N835        C837   1.356       .  A
C837        H838   1.081       .  S
N842        C847   1.362       .  A
N842        C846   1.362       .  A
N842        H874   1.038       .  S
N843       C2190   1.359       .  A
N843        C851   1.359       .  A
N844        C849   1.358       .  A
N844        C848   1.359       .  A
N844        H875   1.040       .  S
N845       C2192   1.356       .  A
N845        C853   1.358       .  A
C846        C854   1.388       .  A
C846        C862   1.434       .  A
C847        C863   1.428       .  A
C847        C855   1.384       .  A
C848        C856   1.384       .  A
C848        C865   1.420       .  A
C849        C864   1.423       .  A
C849        C857   1.383       .  A
C850        C862   1.426       .  A
C850        C858   1.387       .  A
C850       N2183   1.359   1_455  A
C851        C865   1.423       .  A
C851        C859   1.384       .  A
C852        C860   1.386       .  A
C852        C863   1.423       .  A
C852       N2185   1.356   1_455  A
C853        C861   1.384       .  A
C853        C864   1.420       .  A
C854        C855   1.382       .  A
C854        H866   1.082       .  S
C855        H867   1.082       .  S
C856        C857   1.379       .  A
C856        H868   1.082       .  S
C857        H869   1.078       .  S
C858       C2199   1.376   1_455  A
C858        H870   1.081       .  S
C859       C2198   1.376       .  A
C859        H871   1.082       .  S
C860       C2201   1.377   1_455  A
C860        H872   1.082       .  S
C861       C2200   1.377       .  A
C861        H873   1.082       .  S
C863       N1026   1.462       .  S
C864        N889   1.461       .  S
C865        N983   1.460       .  S
C876        C878   1.570       .  S
C876        C880   1.540       .  S
C876        C879   1.544       .  S
C876       C1247   1.499       .  S
C877        C881   1.559       .  S
C877        C883   1.536       .  S
C877        C882   1.543       .  S
C877       C1233   1.495       .  S
C878        C886   1.402       .  A
C878        C881   1.389       .  A
C879        C890   1.387       .  A
C879        C882   1.382       .  A
C880        C894   1.390       .  A
C880        C883   1.370       .  A
C881        C884   1.395       .  A
C882        C888   1.390       .  A
C883        C891   1.386       .  A
C884        N885   1.361       .  A
C884        H897   1.082       .  S
N885        C886   1.365       .  A
C886        H887   1.081       .  S
C888        N889   1.363       .  A
C888        H898   1.080       .  S
N889        C890   1.363       .  A
C890        H896   1.082       .  S
C891        N892   1.360       .  A
C891        H893   1.082       .  S
N892        C894   1.362       .  A
N892        C956   1.458       .  S
C894        H895   1.081       .  S
N899        C904   1.358       .  A
N899        C903   1.357       .  A
N899        H931   1.043       .  S
N900        C907   1.361       .  A
N900        C908   1.362   1_554  A
N901        C906   1.360       .  A
N901        C905   1.361       .  A
N901        H932   1.043       .  S
N902        C909   1.361       .  A
N902        C910   1.361   1_554  A
C903        C911   1.387       .  A
C903        C919   1.421       .  A
C904        C920   1.421       .  A
C904        C912   1.386       .  A
C905        C913   1.386       .  A
C905        C922   1.427       .  A
C906        C921   1.423       .  A
C906        C914   1.383       .  A
C907        C919   1.429       .  A
C907        C915   1.385       .  A
C908        C922   1.432       .  A
C908        C916   1.386       .  A
C909        C917   1.386       .  A
C909        C920   1.431       .  A
C910        C918   1.383       .  A
C910        C921   1.427       .  A
C911        C912   1.376       .  A
C911        H923   1.082       .  S
C912        H924   1.082       .  S
C913        C914   1.379       .  A
C913        H925   1.082       .  S
C914        H926   1.082       .  S
C915        C916   1.380   1_554  A
C915        H927   1.082       .  S
C916        H928   1.081       .  S
C917        C918   1.381   1_554  A
C917        H929   1.082       .  S
C918        H930   1.079       .  S
C920       N1045   1.464       .  S
C922        N976   1.471       .  S
N933        C938   1.363       .  A
N933        C937   1.362       .  A
N933        H965   1.040       .  S
N934        C941   1.357   1_556  A
N934        C942   1.356       .  A
N935        C940   1.356       .  A
N935        C939   1.358       .  A
N935        H966   1.042       .  S
N936        C943   1.358   1_556  A
N936        C944   1.359       .  A
C937        C945   1.384       .  A
C937        C953   1.429       .  A
C938        C954   1.433       .  A
C938        C946   1.387       .  A
C939        C947   1.385       .  A
C939        C956   1.418       .  A
C940        C955   1.419       .  A
C940        C948   1.383       .  A
C941        C953   1.419       .  A
C941        C949   1.384       .  A
C942        C956   1.421       .  A
C942        C950   1.384       .  A
C943        C951   1.385       .  A
C943        C954   1.424       .  A
C944        C952   1.385       .  A
C944        C955   1.425       .  A
C945        C946   1.383       .  A
C945        H957   1.082       .  S
C946        H958   1.082       .  S
C947        C948   1.378       .  A
C947        H959   1.082       .  S
C948        H960   1.080       .  S
C949        C950   1.377   1_554  A
C949        H961   1.082       .  S
C950        H962   1.079       .  S
C951        C952   1.379   1_554  A
C951        H963   1.081       .  S
C952        H964   1.082       .  S
C953       N1006   1.463       .  S
C955       N1022   1.461       .  S
C967        C969   1.548       .  S
C967        C971   1.551       .  S
C967        C970   1.540       .  S
C967       C1216   1.502       .  S
C968        C972   1.572       .  S
C968        C974   1.544       .  S
C968        C973   1.558       .  S
C968       C1202   1.513       .  S
C969        C977   1.392       .  A
C969        C972   1.384       .  A
C970        C981   1.390       .  A
C970        C973   1.379       .  A
C971        C985   1.392       .  A
C971        C974   1.384       .  A
C972        C975   1.403       .  A
C973        C979   1.398       .  A
C974        C982   1.388       .  A
C975        N976   1.367       .  A
C975        H988   1.081       .  S
N976        C977   1.360       .  A
C977        H978   1.081       .  S
C979        N980   1.369       .  A
C979        H989   1.081       .  S
N980        C981   1.361       .  A
C981        H987   1.083       .  S
C982        N983   1.362       .  A
C982        H984   1.082       .  S
N983        C985   1.363       .  A
C985        H986   1.081       .  S
C990        C992   1.560       .  S
C990        C994   1.548       .  S
C990        C993   1.565       .  S
C990       C1174   1.516       .  S
C991        C995   1.542       .  S
C991        C997   1.548       .  S
C991        C996   1.564       .  S
C991       C1188   1.511       .  S
C992       C1000   1.398       .  A
C992        C995   1.383       .  A
C993       C1004   1.402       .  A
C993        C996   1.387       .  A
C994       C1008   1.393       .  A
C994        C997   1.382       .  A
C995        C998   1.391       .  A
C996       C1002   1.399       .  A
C997       C1005   1.392       .  A
C998        N999   1.364       .  A
C998       H1011   1.082       .  S
N999       C1000   1.367       .  A
C1000      H1001   1.081       .  S
C1002      N1003   1.359       .  A
C1002      H1012   1.079       .  S
N1003      C1004   1.363       .  A
C1004      H1010   1.079       .  S
C1005      N1006   1.360       .  A
C1005      H1007   1.081       .  S
N1006      C1008   1.365       .  A
C1008      H1009   1.082       .  S
C1013      C1015   1.552       .  S
C1013      C1017   1.537       .  S
C1013      C1016   1.563       .  S
C1013      C1146   1.515       .  S
C1014      C1018   1.551       .  S
C1014      C1020   1.535       .  S
C1014      C1019   1.555       .  S
C1014      C1163   1.511       .  S
C1015      C1023   1.395       .  A
C1015      C1018   1.382       .  A
C1016      C1027   1.395       .  A
C1016      C1019   1.398       .  A
C1017      C1031   1.386       .  A
C1017      C1020   1.374       .  A
C1018      C1021   1.388       .  A
C1019      C1025   1.389       .  A
C1020      C1028   1.389       .  A
C1021      N1022   1.356       .  A
C1021      H1034   1.081       .  S
N1022      C1023   1.367       .  A
C1023      H1024   1.082       .  S
C1025      N1026   1.363       .  A
C1025      H1035   1.080       .  S
N1026      C1027   1.362       .  A
C1027      H1033   1.081       .  S
C1028      N1029   1.365       .  A
C1028      H1030   1.082       .  S
N1029      C1031   1.362       .  A
C1031      H1032   1.082       .  S
C1036      C1038   1.563       .  S
C1036      C1040   1.546       .  S
C1036      C1039   1.539       .  S
C1036      C1132   1.497       .  S
C1037      C1041   1.531       .  S
C1037      C1043   1.544       .  S
C1037      C1042   1.563       .  S
C1037      C1121   1.496       .  S
C1038      C1046   1.401       .  A
C1038      C1041   1.374       .  A
C1039      C1050   1.386       .  A
C1039      C1042   1.386       .  A
C1040      C1054   1.387       .  A
C1040      C1043   1.382       .  A
C1041      C1044   1.384       .  A
C1042      C1048   1.397       .  A
C1043      C1051   1.390       .  A
C1044      N1045   1.355       .  A
C1044      H1057   1.082       .  S
N1045      C1046   1.370       .  A
C1046      H1047   1.081       .  S
C1048      N1049   1.367       .  A
C1048      H1058   1.081       .  S
N1049      C1050   1.360       .  A
C1050      H1056   1.082       .  S
C1051      N1052   1.361       .  A
C1051      H1053   1.082       .  S
N1052      C1054   1.357       .  A
C1054      H1055   1.081       .  S
O1059      C1067   1.268       .  A
O1059     Co2419   2.021   1_455  S
O1060      C1068   1.285       .  A
O1060     Co1080   2.030       .  S
O1061      C1069   1.269       .  A
O1061     Co1081   1.891       .  S
O1062      C1070   1.253       .  A
O1062     Co1082   1.972   1_554  S
O1063      C1069   1.288       .  A
O1063     Co2420   2.032   1_455  S
O1064      C1070   1.265       .  A
O1064     Co1079   2.000       .  S
O1065      C1068   1.264       .  A
O1065     Co1082   1.880       .  S
O1066      C1067   1.250       .  A
O1066     Co1081   1.960   1_554  S
C1067      C1328   1.467       .  S
C1068      C1230   1.428       .  S
C1069      C1160   1.461       .  S
C1070      C1177   1.450       .  S
O1071      C1084   1.254       .  A
O1072      C1085   1.245       .  A
O1072     Co1750   1.975   1_465  S
O1073      C1086   1.266       .  A
O1074      C1087   1.235       .  A
O1075      C1087   1.249       .  A
O1076      C1086   1.249       .  A
O1076     Co1749   1.934   1_455  S
O1077      C1084   1.262       .  A
O1078      C1085   1.234       .  A
Co1079     O2399   2.021       .  S
Co1079     O1746   1.935       .  S
Co1079     O1083   2.049       .  S
Co1080     O2403   2.032       .  S
Co1080     O1742   1.975       .  S
Co1080     O1083   2.227   1_556  S
Co1081     O2423   1.882   1_456  S
Co1082     O1083   1.894   1_556  S
O1083     Co2421   1.882   1_554  S
C1084      C1303   1.441       .  S
C1085      C1261   1.439       .  S
C1086      C1118   1.438       .  S
C1087      C1219   1.436       .  S
O1088      C1096   1.251       .  A
O1088     Co1108   1.935       .  S
O1089      C1097   1.266       .  A
O1089     Co1109   1.873       .  S
O1090      C1098   1.278       .  A
O1090     Co1110   2.029       .  S
O1091      C1099   1.259       .  A
O1091     Co1111   1.999       .  S
O1092      C1098   1.263       .  A
O1092     Co1109   1.939       .  S
O1093      C1099   1.242       .  A
O1093     Co1108   1.928       .  S
O1094      C1097   1.291       .  A
O1094     Co1111   2.095       .  S
O1095      C1096   1.269       .  A
O1095     Co1110   2.006       .  S
C1096      C1191   1.444       .  S
C1097      C1205   1.448       .  S
C1098      C1286   1.455       .  S
C1099      C1244   1.439       .  S
O1100      C1113   1.281       .  A
O1100     Co1108   2.019       .  S
O1101      C1114   1.258       .  A
O1101     Co1109   1.988       .  S
O1102      C1115   1.252       .  A
O1102     Co1110   1.931       .  S
O1103      C1116   1.266       .  A
O1103     Co1111   1.879       .  S
O1104      C1116   1.285       .  A
O1104     Co1109   2.075       .  S
O1105      C1115   1.269       .  A
O1105     Co1108   2.022       .  S
O1106      C1113   1.266       .  A
O1106     Co1111   1.951       .  S
O1107      C1114   1.242       .  A
O1107     Co1110   1.925       .  S
Co1108     O1112   1.971       .  S
Co1109     O1112   1.961       .  S
Co1110     O1112   1.972       .  S
Co1111     O1112   1.978       .  S
C1113      C1149   1.460       .  S
C1114      C1135   1.425       .  S
C1115      C1314   1.452       .  S
C1116      C1272   1.433       .  S
C1117      C1118   1.386       .  A
C1117      C1122   1.384       .  A
C1117      H1124   1.085       .  S
C1118      C1119   1.404       .  A
C1119      C1120   1.380       .  A
C1119      N1126   1.427       .  S
C1120      C1121   1.398       .  A
C1120      H1125   1.077       .  S
C1121      C1122   1.428       .  A
C1122      N1123   1.432       .  S
N1123      O1127   1.261       .  A
N1123      O1128   1.262       .  A
N1126      O1130   1.260       .  A
N1126      O1129   1.261       .  A
C1131      C1132   1.393       .  A
C1131      C1136   1.377       .  A
C1131      H1138   1.081       .  S
C1132      C1133   1.422       .  A
C1133      C1134   1.388       .  A
C1133      N1140   1.436       .  S
C1134      C1135   1.383       .  A
C1134      H1139   1.085       .  S
C1135      C1136   1.408       .  A
C1136      N1137   1.428       .  S
N1137      O1141   1.257       .  A
N1137      O1142   1.260       .  A
N1140      O1144   1.263       .  A
N1140      O1143   1.261       .  A
C1145      C1146   1.407       .  A
C1145      C1150   1.394       .  A
C1145      H1152   1.079       .  S
C1146      C1147   1.427       .  A
C1147      C1148   1.393       .  A
C1147      N1154   1.439       .  S
C1148      C1149   1.394       .  A
C1148      H1153   1.084       .  S
C1149      C1150   1.404       .  A
C1150      N1151   1.432       .  S
N1151      O1155   1.262       .  A
N1151      O1156   1.261       .  A
N1154      O1158   1.263       .  A
N1154      O1157   1.261       .  A
C1159      C1160   1.407       .  A
C1159      C1164   1.394       .  A
C1159      H1166   1.083       .  S
C1160      C1161   1.405       .  A
C1161      C1162   1.385       .  A
C1161      N1168   1.431       .  S
C1162      C1163   1.407       .  A
C1162      H1167   1.083       .  S
C1163      C1164   1.410       .  A
C1164      N1165   1.435       .  S
N1165      O1169   1.262       .  A
N1165      O1170   1.263       .  A
N1168      O1172   1.262       .  A
N1168      O1171   1.262       .  A
C1173      C1174   1.406       .  A
C1173      C1178   1.391       .  A
C1173      H1180   1.075       .  S
C1174      C1175   1.412       .  A
C1175      C1176   1.390       .  A
C1175      N1182   1.430       .  S
C1176      C1177   1.396       .  A
C1176      H1181   1.082       .  S
C1177      C1178   1.401       .  A
C1178      N1179   1.429       .  S
N1179      O1183   1.261       .  A
N1179      O1184   1.262       .  A
N1182      O1186   1.258       .  A
N1182      O1185   1.261       .  A
C1187      C1188   1.399       .  A
C1187      C1192   1.384       .  A
C1187      H1194   1.079       .  S
C1188      C1189   1.414       .  A
C1189      C1190   1.391       .  A
C1189      N1196   1.435       .  S
C1190      C1191   1.398       .  A
C1190      H1195   1.085       .  S
C1191      C1192   1.405       .  A
C1192      N1193   1.431       .  S
N1193      O1197   1.262       .  A
N1193      O1198   1.262       .  A
N1196      O1200   1.262       .  A
N1196      O1199   1.261       .  A
C1201      C1202   1.401       .  A
C1201      C1206   1.386       .  A
C1201      H1208   1.078       .  S
C1202      C1203   1.419       .  A
C1203      C1204   1.394       .  A
C1203      N1210   1.434       .  S
C1204      C1205   1.395       .  A
C1204      H1209   1.085       .  S
C1205      C1206   1.403       .  A
C1206      N1207   1.429       .  S
N1207      O1211   1.261       .  A
N1207      O1212   1.260       .  A
N1210      O1214   1.262       .  A
N1210      O1213   1.261       .  A
C1215      C1216   1.407       .  A
C1215      C1220   1.388       .  A
C1215      H1222   1.079       .  S
C1216      C1217   1.421       .  A
C1217      C1218   1.382       .  A
C1217      N1224   1.436       .  S
C1218      C1219   1.390       .  A
C1218      H1223   1.084       .  S
C1219      C1220   1.396       .  A
C1220      N1221   1.427       .  S
N1221      O1225   1.261       .  A
N1221      O1226   1.262       .  A
N1224      O1228   1.260       .  A
N1224      O1227   1.263       .  A
C1229      C1230   1.391       .  A
C1229      C1234   1.388       .  A
C1229      H1236   1.084       .  S
C1230      C1231   1.395       .  A
C1231      C1232   1.376       .  A
C1231      N1238   1.427       .  S
C1232      C1233   1.405       .  A
C1232      H1237   1.079       .  S
C1233      C1234   1.422       .  A
C1234      N1235   1.431       .  S
N1235      O1239   1.262       .  A
N1235      O1240   1.261       .  A
N1238      O1242   1.262       .  A
N1238      O1241   1.262       .  A
C1243      C1244   1.387       .  A
C1243      C1248   1.387       .  A
C1243      H1250   1.080       .  S
C1244      C1245   1.409       .  A
C1245      C1246   1.379       .  A
C1245      N1252   1.431       .  S
C1246      C1247   1.394       .  A
C1246      H1251   1.076       .  S
C1247      C1248   1.423       .  A
C1248      N1249   1.432       .  S
N1249      O1253   1.262       .  A
N1249      O1254   1.259       .  A
N1252      O1256   1.262       .  A
N1252      O1255   1.261       .  A
C1257      C1258   1.404       .  A
C1257      C1262   1.379       .  A
C1257      H1264   1.079       .  S
C1258      C1259   1.416       .  A
C1259      C1260   1.393       .  A
C1259      N1266   1.431       .  S
C1260      C1261   1.398       .  A
C1260      H1265   1.083       .  S
C1261      C1262   1.396       .  A
C1262      N1263   1.430       .  S
N1263      O1267   1.260   1_565  A
N1266      O1270   1.262       .  A
N1266      O1269   1.260       .  A
C1271      C1272   1.395       .  A
C1271      C1276   1.392       .  A
C1271      H1278   1.083       .  S
C1272      C1273   1.393       .  A
C1273      C1274   1.383       .  A
C1273      N1280   1.425       .  S
C1274      C1275   1.401       .  A
C1274      H1279   1.077       .  S
C1275      C1276   1.417       .  A
C1276      N1277   1.433       .  S
N1277      O1281   1.262       .  A
N1277      O1282   1.261       .  A
N1280      O1284   1.262       .  A
N1280      O1283   1.262       .  A
C1285      C1286   1.402       .  A
C1285      C1290   1.396       .  A
C1285      H1292   1.084       .  S
C1286      C1287   1.410       .  A
C1287      C1288   1.381       .  A
C1287      N1294   1.429       .  S
C1288      C1289   1.395       .  A
C1288      H1293   1.083       .  S
C1289      C1290   1.414       .  A
C1290      N1291   1.434       .  S
N1291      O1295   1.263       .  A
N1291      O1296   1.262       .  A
N1294      O1298   1.262       .  A
N1294      O1297   1.261       .  A
C1299      C1300   1.404       .  A
C1299      C1304   1.384       .  A
C1299      H1306   1.078       .  S
C1300      C1301   1.424       .  A
C1301      C1302   1.386       .  A
C1301      N1308   1.430       .  S
C1302      C1303   1.387       .  A
C1302      H1307   1.083       .  S
C1303      C1304   1.399       .  A
C1304      N1305   1.428       .  S
N1305      O1309   1.260       .  A
N1305      O1310   1.262       .  A
N1308      O1312   1.261       .  A
N1308      O1311   1.259       .  A
C1313      C1314   1.399       .  A
C1313      C1318   1.382       .  A
C1313      H1320   1.068       .  S
C1314      C1315   1.395       .  A
C1315      C1316   1.391       .  A
C1315      N1322   1.428       .  S
C1316      C1317   1.416       .  A
C1316      H1321   1.081       .  S
C1317      C1318   1.407       .  A
C1318      N1319   1.441       .  S
N1319      O1323   1.263       .  A
N1319      O1324   1.262       .  A
N1322      O1326   1.261       .  A
N1322      O1325   1.262       .  A
C1327      C1328   1.406       .  A
C1327      C1332   1.400       .  A
C1327      H1334   1.083       .  S
C1328      C1329   1.401       .  A
C1329      C1330   1.389       .  A
C1329      N1336   1.429       .  S
C1330      C1331   1.408       .  A
C1330      H1335   1.080       .  S
C1331      C1332   1.418       .  A
C1332      N1333   1.440       .  S
N1333      O1337   1.263       .  A
N1333      O1338   1.262       .  A
N1336      O1340   1.262       .  A
N1336      O1339   1.262       .  A
C1341      C1343   1.565       .  S
C1341      C1345   1.566       .  S
C1341      C1344   1.546       .  S
C1341      C2001   1.520       .  S
C1342      C1346   1.534       .  S
C1342      C1348   1.541       .  S
C1342      C1347   1.555       .  S
C1342      C1987   1.502       .  S
C1343      C1351   1.403       .  A
C1343      C1346   1.383       .  A
C1344      C1355   1.388       .  A
C1344      C1347   1.384       .  A
C1345      C1359   1.397       .  A
C1345      C1348   1.382       .  A
C1346      C1349   1.383       .  A
C1347      C1353   1.397       .  A
C1348      C1356   1.388       .  A
C1349      N1350   1.357       .  A
C1349      H1362   1.083       .  S
N1350      C1351   1.372       .  A
N1350      C1624   1.466       .  S
C1351      H1352   1.081       .  S
C1353      N1354   1.367       .  A
C1353      H1363   1.081       .  S
N1354      C1355   1.363       .  A
N1354      C1384   1.466       .  S
C1355      H1361   1.082       .  S
C1356      N1357   1.354       .  A
C1356      H1358   1.082       .  S
N1357      C1359   1.364       .  A
N1357      C1441   1.458       .  S
C1359      H1360   1.082       .  S
N1364      C1369   1.361       .  A
N1364      H1396   1.040       .  S
N1365      C1372   1.361       .  A
N1365      C1373   1.361       .  A
N1366      C1371   1.360       .  A
N1366      H1397   1.040       .  S
N1367      C1374   1.361       .  A
N1367      C1375   1.361       .  A
C1368      C1376   1.385       .  A
C1368      C1384   1.426       .  A
C1369      C1385   1.430       .  A
C1369      C1377   1.387       .  A
C1370      C1378   1.385       .  A
C1370      C1387   1.423       .  A
C1371      C1386   1.425       .  A
C1371      C1379   1.387       .  A
C1372      C1384   1.427       .  A
C1372      C1380   1.384       .  A
C1373      C1387   1.428       .  A
C1373      C1381   1.385       .  A
C1374      C1382   1.387       .  A
C1374      C1385   1.432       .  A
C1375      C1383   1.385       .  A
C1375      C1386   1.429       .  A
C1376      H1388   1.082       .  S
C1377      H1389   1.082       .  S
C1378      H1390   1.082       .  S
C1379      H1391   1.082       .  S
C1380      C1381   1.379       .  A
C1380      H1392   1.080       .  S
C1381      H1393   1.082       .  S
C1382      C1383   1.380       .  A
C1382      H1394   1.082       .  S
C1383      H1395   1.082       .  S
C1385      N1673   1.470       .  S
C1386      N1414   1.465       .  S
C1387      N1719   1.463       .  S
C1398      C1400   1.560       .  S
C1398      C1402   1.551       .  S
C1398      C1401   1.552       .  S
C1398      C1959   1.505       .  S
C1399      C1403   1.530       .  S
C1399      C1405   1.564       .  S
C1399      C1404   1.551       .  S
C1399      C1970   1.500       .  S
C1400      C1408   1.399       .  A
C1400      C1403   1.370       .  A
C1401      C1412   1.396       .  A
C1401      C1404   1.382       .  A
C1402      C1416   1.390       .  A
C1402      C1405   1.391       .  A
C1403      C1406   1.386       .  A
C1404      C1410   1.395       .  A
C1405      C1413   1.396       .  A
C1406      N1407   1.355       .  A
C1406      H1419   1.083       .  S
N1407      C1408   1.367       .  A
N1407      C1589   1.460       .  S
C1408      H1409   1.082       .  S
C1410      N1411   1.365       .  A
C1410      H1420   1.081       .  S
N1411      C1412   1.368       .  A
N1411      C1475   1.470       .  S
C1412      H1418   1.082       .  S
C1413      N1414   1.366       .  A
C1413      H1415   1.081       .  S
N1414      C1416   1.361       .  A
C1416      H1417   1.080       .  S
N1421      C2096   1.354   1_545  A
N1421      C1425   1.354       .  A
N1421      H1453   1.048       .  S
N1422      C1429   1.360       .  A
N1422      C1430   1.358       .  A
N1423      C2098   1.360   1_545  A
N1423      C1427   1.358       .  A
N1423      H1454   1.048       .  S
N1424      C1431   1.354       .  A
N1424      C1432   1.355       .  A
C1425      C1433   1.386       .  A
C1425      C1441   1.415       .  A
C1426      C1442   1.413       .  A
C1426      C1434   1.382       .  A
C1426      N2091   1.354       .  A
C1427      C1435   1.387       .  A
C1427      C1444   1.427       .  A
C1428      C1443   1.427       .  A
C1428      C1436   1.386       .  A
C1428      N2093   1.360       .  A
C1429      C1441   1.425       .  A
C1429      C1437   1.385       .  A
C1430      C1444   1.427       .  A
C1430      C1438   1.387       .  A
C1431      C1439   1.382       .  A
C1431      C1442   1.416       .  A
C1432      C1440   1.384       .  A
C1432      C1443   1.415       .  A
C1433      C2104   1.379   1_545  A
C1433      H1445   1.082       .  S
C1434      C2103   1.379       .  A
C1434      H1446   1.081       .  S
C1435      C2106   1.381   1_545  A
C1435      H1447   1.082       .  S
C1436      C2105   1.381       .  A
C1436      H1448   1.082       .  S
C1437      C1438   1.379       .  A
C1437      H1449   1.082       .  S
C1438      H1450   1.082       .  S
C1439      C1440   1.379       .  A
C1439      H1451   1.082       .  S
C1440      H1452   1.082       .  S
C1442      N1722   1.453       .  S
C1443      N1505   1.458       .  S
C1444      N1699   1.460       .  S
N1455      C1460   1.363       .  A
N1455      C2129   1.365   1_545  A
N1455      H1487   1.034       .  S
N1456      C1463   1.359       .  A
N1456      C1464   1.357       .  A
N1457      C1462   1.365       .  A
N1457      C2131   1.365   1_545  A
N1457      H1488   1.028       .  S
N1458      C1465   1.361       .  A
N1458      C1466   1.360       .  A
C1459      C1467   1.382       .  A
C1459      C1475   1.430       .  A
C1459      N2125   1.365       .  A
C1460      C1476   1.430       .  A
C1460      C1468   1.383       .  A
C1461      C1469   1.384       .  A
C1461      C1478   1.433       .  A
C1461      N2127   1.365       .  A
C1462      C1477   1.432       .  A
C1462      C1470   1.386       .  A
C1463      C1475   1.421       .  A
C1463      C1471   1.384       .  A
C1464      C1478   1.423       .  A
C1464      C1472   1.383       .  A
C1465      C1473   1.385       .  A
C1465      C1476   1.426       .  A
C1466      C1474   1.386       .  A
C1466      C1477   1.428       .  A
C1467      C2138   1.384       .  A
C1467      H1479   1.081       .  S
C1468      C2137   1.384   1_545  A
C1468      H1480   1.081       .  S
C1469      C2140   1.383       .  A
C1469      H1481   1.079       .  S
C1470      C2139   1.383   1_545  A
C1470      H1482   1.082       .  S
C1471      C1472   1.379       .  A
C1471      H1483   1.082       .  S
C1472      H1484   1.081       .  S
C1473      C1474   1.377       .  A
C1473      H1485   1.082       .  S
C1474      H1486   1.082       .  S
C1476      N1669   1.469       .  S
C1477      N1555   1.467       .  S
C1478      N1650   1.467       .  S
C1489      C1491   1.546       .  S
C1489      C1493   1.559       .  S
C1489      C1492   1.551       .  S
C1489      C1928   1.509       .  S
C1490      C1494   1.551       .  S
C1490      C1496   1.538       .  S
C1490      C1495   1.564       .  S
C1490      C1945   1.506       .  S
C1491      C1499   1.393       .  A
C1491      C1494   1.383       .  A
C1492      C1503   1.393       .  A
C1492      C1495   1.389       .  A
C1493      C1507   1.395       .  A
C1493      C1496   1.378       .  A
C1494      C1497   1.393       .  A
C1495      C1501   1.394       .  A
C1496      C1504   1.393       .  A
C1497      N1498   1.366       .  A
C1497      H1510   1.082       .  S
N1498      C1499   1.364       .  A
N1498      C1591   1.466       .  S
C1499      H1500   1.082       .  S
C1501      N1502   1.360       .  A
C1501      H1511   1.079       .  S
N1502      C1503   1.366       .  A
N1502      C1532   1.467       .  S
C1503      H1509   1.080       .  S
C1504      N1505   1.362       .  A
C1504      H1506   1.082       .  S
N1505      C1507   1.356       .  A
C1507      H1508   1.081       .  S
N1512      C1517   1.363       .  A
N1512      C1516   1.362       .  A
N1512      H1544   1.038       .  S
N1513      C1521   1.359       .  A
N1514      C1519   1.358       .  A
N1514      C1518   1.359       .  A
N1514      H1545   1.040       .  S
N1515      C1523   1.358       .  A
C1516      C1524   1.388       .  A
C1516      C1532   1.434       .  A
C1517      C1533   1.428       .  A
C1517      C1525   1.384       .  A
C1518      C1526   1.384       .  A
C1518      C1535   1.420       .  A
C1519      C1534   1.423       .  A
C1519      C1527   1.383       .  A
C1520      C1532   1.426       .  A
C1520      C1528   1.387       .  A
C1521      C1535   1.423       .  A
C1521      C1529   1.384       .  A
C1522      C1530   1.386       .  A
C1522      C1533   1.423       .  A
C1523      C1531   1.384       .  A
C1523      C1534   1.420       .  A
C1524      C1525   1.382       .  A
C1524      H1536   1.082       .  S
C1525      H1537   1.082       .  S
C1526      C1527   1.379       .  A
C1526      H1538   1.082       .  S
C1527      H1539   1.078       .  S
C1528      H1540   1.081       .  S
C1529      H1541   1.082       .  S
C1530      H1542   1.082       .  S
C1531      H1543   1.082       .  S
C1533      N1696   1.462       .  S
C1534      N1559   1.461       .  S
C1535      N1653   1.460       .  S
C1546      C1548   1.570       .  S
C1546      C1550   1.540       .  S
C1546      C1549   1.544       .  S
C1546      C1917   1.499       .  S
C1547      C1551   1.559       .  S
C1547      C1553   1.536       .  S
C1547      C1552   1.543       .  S
C1547      C1903   1.495       .  S
C1548      C1556   1.402       .  A
C1548      C1551   1.389       .  A
C1549      C1560   1.387       .  A
C1549      C1552   1.382       .  A
C1550      C1564   1.390       .  A
C1550      C1553   1.370       .  A
C1551      C1554   1.395       .  A
C1552      C1558   1.390       .  A
C1553      C1561   1.386       .  A
C1554      N1555   1.361       .  A
C1554      H1567   1.082       .  S
N1555      C1556   1.365       .  A
C1556      H1557   1.081       .  S
C1558      N1559   1.363       .  A
C1558      H1568   1.080       .  S
N1559      C1560   1.363       .  A
C1560      H1566   1.082       .  S
C1561      N1562   1.360       .  A
C1561      H1563   1.082       .  S
N1562      C1564   1.362       .  A
N1562      C1626   1.458       .  S
C1564      H1565   1.081       .  S
N1569      C1574   1.358       .  A
N1569      C1573   1.357       .  A
N1569      H1601   1.043       .  S
N1570      C1577   1.361       .  A
N1570      C1578   1.362   1_554  A
N1571      C1576   1.359       .  A
N1571      C1575   1.361       .  A
N1571      H1602   1.043       .  S
N1572      C1579   1.361       .  A
N1572      C1580   1.361   1_554  A
C1573      C1581   1.387       .  A
C1573      C1589   1.421       .  A
C1574      C1590   1.421       .  A
C1574      C1582   1.386       .  A
C1575      C1583   1.386       .  A
C1575      C1592   1.427       .  A
C1576      C1591   1.423       .  A
C1576      C1584   1.383       .  A
C1577      C1589   1.429       .  A
C1577      C1585   1.385       .  A
C1578      C1592   1.432       .  A
C1578      C1586   1.386       .  A
C1579      C1587   1.387       .  A
C1579      C1590   1.431       .  A
C1580      C1588   1.383       .  A
C1580      C1591   1.427       .  A
C1581      C1582   1.376       .  A
C1581      H1593   1.082       .  S
C1582      H1594   1.082       .  S
C1583      C1584   1.379       .  A
C1583      H1595   1.082       .  S
C1584      H1596   1.082       .  S
C1585      C1586   1.380   1_554  A
C1585      H1597   1.082       .  S
C1586      H1598   1.081       .  S
C1587      C1588   1.381   1_554  A
C1587      H1599   1.082       .  S
C1588      H1600   1.079       .  S
C1590      N1715   1.464       .  S
C1592      N1646   1.471       .  S
N1603      C1608   1.363       .  A
N1603      C1607   1.362       .  A
N1603      H1635   1.040       .  S
N1604      C1611   1.357   1_556  A
N1604      C1612   1.356       .  A
N1605      C1610   1.356       .  A
N1605      C1609   1.358       .  A
N1605      H1636   1.042       .  S
N1606      C1613   1.358   1_556  A
N1606      C1614   1.359       .  A
C1607      C1615   1.384       .  A
C1607      C1623   1.429       .  A
C1608      C1624   1.433       .  A
C1608      C1616   1.387       .  A
C1609      C1617   1.385       .  A
C1609      C1626   1.418       .  A
C1610      C1625   1.419       .  A
C1610      C1618   1.383       .  A
C1611      C1623   1.419       .  A
C1611      C1619   1.384       .  A
C1612      C1626   1.421       .  A
C1612      C1620   1.384       .  A
C1613      C1621   1.385       .  A
C1613      C1624   1.424       .  A
C1614      C1622   1.385       .  A
C1614      C1625   1.425       .  A
C1615      C1616   1.383       .  A
C1615      H1627   1.082       .  S
C1616      H1628   1.082       .  S
C1617      C1618   1.378       .  A
C1617      H1629   1.082       .  S
C1618      H1630   1.080       .  S
C1619      C1620   1.377   1_554  A
C1619      H1631   1.082       .  S
C1620      H1632   1.079       .  S
C1621      C1622   1.379   1_554  A
C1621      H1633   1.081       .  S
C1622      H1634   1.082       .  S
C1623      N1676   1.463       .  S
C1625      N1692   1.461       .  S
C1637      C1639   1.548       .  S
C1637      C1641   1.551       .  S
C1637      C1640   1.540       .  S
C1637      C1886   1.502       .  S
C1638      C1642   1.572       .  S
C1638      C1644   1.544       .  S
C1638      C1643   1.558       .  S
C1638      C1872   1.513       .  S
C1639      C1647   1.392       .  A
C1639      C1642   1.384       .  A
C1640      C1651   1.390       .  A
C1640      C1643   1.379       .  A
C1641      C1655   1.392       .  A
C1641      C1644   1.384       .  A
C1642      C1645   1.403       .  A
C1643      C1649   1.398       .  A
C1644      C1652   1.388       .  A
C1645      N1646   1.367       .  A
C1645      H1658   1.081       .  S
N1646      C1647   1.360       .  A
C1647      H1648   1.081       .  S
C1649      N1650   1.369       .  A
C1649      H1659   1.081       .  S
N1650      C1651   1.361       .  A
C1651      H1657   1.083       .  S
C1652      N1653   1.362       .  A
C1652      H1654   1.082       .  S
N1653      C1655   1.363       .  A
C1655      H1656   1.081       .  S
C1660      C1662   1.560       .  S
C1660      C1664   1.548       .  S
C1660      C1663   1.565       .  S
C1660      C1844   1.516       .  S
C1661      C1665   1.542       .  S
C1661      C1667   1.548       .  S
C1661      C1666   1.564       .  S
C1661      C1858   1.511       .  S
C1662      C1670   1.398       .  A
C1662      C1665   1.383       .  A
C1663      C1674   1.402       .  A
C1663      C1666   1.387       .  A
C1664      C1678   1.393       .  A
C1664      C1667   1.382       .  A
C1665      C1668   1.391       .  A
C1666      C1672   1.399       .  A
C1667      C1675   1.392       .  A
C1668      N1669   1.364       .  A
C1668      H1681   1.082       .  S
N1669      C1670   1.367       .  A
C1670      H1671   1.081       .  S
C1672      N1673   1.359       .  A
C1672      H1682   1.079       .  S
N1673      C1674   1.363       .  A
C1674      H1680   1.079       .  S
C1675      N1676   1.360       .  A
C1675      H1677   1.081       .  S
N1676      C1678   1.365       .  A
C1678      H1679   1.082       .  S
C1683      C1685   1.552       .  S
C1683      C1687   1.537       .  S
C1683      C1686   1.564       .  S
C1683      C1816   1.515       .  S
C1684      C1688   1.551       .  S
C1684      C1690   1.535       .  S
C1684      C1689   1.555       .  S
C1684      C1833   1.511       .  S
C1685      C1693   1.395       .  A
C1685      C1688   1.382       .  A
C1686      C1697   1.395       .  A
C1686      C1689   1.398       .  A
C1687      C1701   1.386       .  A
C1687      C1690   1.374       .  A
C1688      C1691   1.388       .  A
C1689      C1695   1.389       .  A
C1690      C1698   1.389       .  A
C1691      N1692   1.356       .  A
C1691      H1704   1.081       .  S
N1692      C1693   1.367       .  A
C1693      H1694   1.082       .  S
C1695      N1696   1.363       .  A
C1695      H1705   1.080       .  S
N1696      C1697   1.362       .  A
C1697      H1703   1.081       .  S
C1698      N1699   1.365       .  A
C1698      H1700   1.082       .  S
N1699      C1701   1.362       .  A
C1701      H1702   1.082       .  S
C1706      C1708   1.563       .  S
C1706      C1710   1.546       .  S
C1706      C1709   1.539       .  S
C1706      C1802   1.497       .  S
C1707      C1711   1.531       .  S
C1707      C1713   1.544       .  S
C1707      C1712   1.563       .  S
C1707      C1791   1.496       .  S
C1708      C1716   1.401       .  A
C1708      C1711   1.374       .  A
C1709      C1720   1.386       .  A
C1709      C1712   1.386       .  A
C1710      C1724   1.387       .  A
C1710      C1713   1.382       .  A
C1711      C1714   1.384       .  A
C1712      C1718   1.397       .  A
C1713      C1721   1.390       .  A
C1714      N1715   1.355       .  A
C1714      H1727   1.082       .  S
N1715      C1716   1.370       .  A
C1716      H1717   1.081       .  S
C1718      N1719   1.367       .  A
C1718      H1728   1.081       .  S
N1719      C1720   1.360       .  A
C1720      H1726   1.082       .  S
C1721      N1722   1.361       .  A
C1721      H1723   1.082       .  S
N1722      C1724   1.357       .  A
C1724      H1725   1.081       .  S
O1729      C1737   1.268       .  A
O1730      C1738   1.285       .  A
O1730     Co1750   2.030       .  S
O1731      C1739   1.269       .  A
O1731     Co1751   1.890       .  S
O1732      C1740   1.253       .  A
O1732     Co1752   1.972   1_554  S
O1733      C1739   1.288       .  A
O1734      C1740   1.265       .  A
O1734     Co1749   2.000   1_545  S
O1735      C1738   1.264       .  A
O1735     Co1752   1.880       .  S
O1736      C1737   1.250       .  A
O1736     Co1751   1.960   1_554  S
C1737      C1998   1.467       .  S
C1738      C1900   1.428       .  S
C1739      C1830   1.461       .  S
C1740      C1847   1.450       .  S
O1741      C1754   1.254       .  A
O1741     Co2419   1.952       .  S
O1742      C1755   1.245       .  A
O1743      C1756   1.266       .  A
O1743     Co2421   1.987   1_554  S
O1744      C1757   1.235       .  A
O1744     Co2422   1.923       .  S
O1745      C1757   1.249       .  A
O1745     Co2420   1.978       .  S
O1746      C1756   1.249       .  A
O1747      C1754   1.262       .  A
O1747     Co2422   1.984   1_554  S
O1748      C1755   1.234       .  A
O1748     Co2421   1.934       .  S
Co1749     O2411   1.952       .  S
Co1749     O1753   2.049       .  S
Co1750     O2415   1.978   1_545  S
Co1750     O1753   2.227   1_546  S
Co1751     O2413   1.987   1_546  S
Co1751     O2418   1.934   1_545  S
Co1752     O2414   1.923   1_545  S
Co1752     O2417   1.984   1_546  S
Co1752     O1753   1.894   1_546  S
C1754      C1973   1.441       .  S
C1755      C1931   1.439       .  S
C1756      C1788   1.438       .  S
C1757      C1889   1.436       .  S
O1758      C1766   1.251       .  A
O1758     Co1778   1.935       .  S
O1759      C1767   1.266       .  A
O1759     Co1779   1.873       .  S
O1760      C1768   1.278       .  A
O1760     Co1780   2.029       .  S
O1761      C1769   1.259       .  A
O1761     Co1781   1.998       .  S
O1762      C1768   1.263       .  A
O1762     Co1779   1.939       .  S
O1763      C1769   1.242       .  A
O1763     Co1778   1.928       .  S
O1764      C1767   1.291       .  A
O1764     Co1781   2.095       .  S
O1765      C1766   1.269       .  A
O1765     Co1780   2.007       .  S
C1766      C1861   1.444       .  S
C1767      C1875   1.448       .  S
C1768      C1956   1.455       .  S
C1769      C1914   1.439       .  S
O1770      C1783   1.281       .  A
O1770     Co1778   2.019       .  S
O1771      C1784   1.258       .  A
O1771     Co1779   1.988       .  S
O1772      C1785   1.252       .  A
O1772     Co1780   1.931       .  S
O1773      C1786   1.266       .  A
O1773     Co1781   1.879       .  S
O1774      C1786   1.285       .  A
O1774     Co1779   2.075       .  S
O1775      C1785   1.269       .  A
O1775     Co1778   2.022       .  S
O1776      C1783   1.266       .  A
O1776     Co1781   1.951       .  S
O1777      C1784   1.242       .  A
O1777     Co1780   1.925       .  S
Co1778     O1782   1.971       .  S
Co1779     O1782   1.961       .  S
Co1780     O1782   1.972       .  S
Co1781     O1782   1.978       .  S
C1783      C1819   1.460       .  S
C1784      C1805   1.425       .  S
C1785      C1984   1.452       .  S
C1786      C1942   1.433       .  S
C1787      C1788   1.386       .  A
C1787      C1792   1.384       .  A
C1787      H1794   1.085       .  S
C1788      C1789   1.404       .  A
C1789      C1790   1.380       .  A
C1789      N1796   1.427       .  S
C1790      C1791   1.398       .  A
C1790      H1795   1.077       .  S
C1791      C1792   1.428       .  A
C1792      N1793   1.432       .  S
N1793      O1797   1.261       .  A
N1793      O1798   1.262       .  A
N1796      O1800   1.260       .  A
N1796      O1799   1.261       .  A
C1801      C1802   1.393       .  A
C1801      C1806   1.377       .  A
C1801      H1808   1.081       .  S
C1802      C1803   1.422       .  A
C1803      C1804   1.388       .  A
C1803      N1810   1.436       .  S
C1804      C1805   1.383       .  A
C1804      H1809   1.085       .  S
C1805      C1806   1.408       .  A
C1806      N1807   1.428       .  S
N1807      O1811   1.257       .  A
N1807      O1812   1.260       .  A
N1810      O1814   1.263       .  A
N1810      O1813   1.261       .  A
C1815      C1816   1.407       .  A
C1815      C1820   1.394       .  A
C1815      H1822   1.079       .  S
C1816      C1817   1.427       .  A
C1817      C1818   1.393       .  A
C1817      N1824   1.439       .  S
C1818      C1819   1.394       .  A
C1818      H1823   1.084       .  S
C1819      C1820   1.404       .  A
C1820      N1821   1.432       .  S
N1821      O1825   1.262       .  A
N1821      O1826   1.261       .  A
N1824      O1828   1.263       .  A
N1824      O1827   1.261       .  A
C1829      C1830   1.407       .  A
C1829      C1834   1.394       .  A
C1829      H1836   1.083       .  S
C1830      C1831   1.405       .  A
C1831      C1832   1.385       .  A
C1831      N1838   1.431       .  S
C1832      C1833   1.407       .  A
C1832      H1837   1.083       .  S
C1833      C1834   1.410       .  A
C1834      N1835   1.435       .  S
N1835      O1839   1.262       .  A
N1835      O1840   1.263       .  A
N1838      O1842   1.262       .  A
N1838      O1841   1.262       .  A
C1843      C1844   1.406       .  A
C1843      C1848   1.391       .  A
C1843      H1850   1.075       .  S
C1844      C1845   1.412       .  A
C1845      C1846   1.390       .  A
C1845      N1852   1.430       .  S
C1846      C1847   1.396       .  A
C1846      H1851   1.082       .  S
C1847      C1848   1.401       .  A
C1848      N1849   1.429       .  S
N1849      O1853   1.261       .  A
N1849      O1854   1.262       .  A
N1852      O1856   1.258       .  A
N1852      O1855   1.261       .  A
C1857      C1858   1.399       .  A
C1857      C1862   1.384       .  A
C1857      H1864   1.079       .  S
C1858      C1859   1.414       .  A
C1859      C1860   1.391       .  A
C1859      N1866   1.436       .  S
C1860      C1861   1.398       .  A
C1860      H1865   1.085       .  S
C1861      C1862   1.405       .  A
C1862      N1863   1.431       .  S
N1863      O1867   1.262       .  A
N1863      O1868   1.262       .  A
N1866      O1870   1.262       .  A
N1866      O1869   1.261       .  A
C1871      C1872   1.401       .  A
C1871      C1876   1.386       .  A
C1871      H1878   1.078       .  S
C1872      C1873   1.419       .  A
C1873      C1874   1.394       .  A
C1873      N1880   1.434       .  S
C1874      C1875   1.395       .  A
C1874      H1879   1.085       .  S
C1875      C1876   1.403       .  A
C1876      N1877   1.429       .  S
N1877      O1881   1.261       .  A
N1877      O1882   1.260       .  A
N1880      O1884   1.262       .  A
N1880      O1883   1.261       .  A
C1885      C1886   1.407       .  A
C1885      C1890   1.388       .  A
C1885      H1892   1.079       .  S
C1886      C1887   1.421       .  A
C1887      C1888   1.382       .  A
C1887      N1894   1.436       .  S
C1888      C1889   1.390       .  A
C1888      H1893   1.084       .  S
C1889      C1890   1.396       .  A
C1890      N1891   1.427       .  S
N1891      O1895   1.261       .  A
N1891      O1896   1.262       .  A
N1894      O1898   1.260       .  A
N1894      O1897   1.263       .  A
C1899      C1900   1.391       .  A
C1899      C1904   1.388       .  A
C1899      H1906   1.084       .  S
C1900      C1901   1.395       .  A
C1901      C1902   1.376       .  A
C1901      N1908   1.427       .  S
C1902      C1903   1.405       .  A
C1902      H1907   1.079       .  S
C1903      C1904   1.422       .  A
C1904      N1905   1.431       .  S
N1905      O1909   1.262       .  A
N1905      O1910   1.261       .  A
N1908      O1912   1.262       .  A
N1908      O1911   1.262       .  A
C1913      C1914   1.387       .  A
C1913      C1918   1.387       .  A
C1913      H1920   1.080       .  S
C1914      C1915   1.409       .  A
C1915      C1916   1.379       .  A
C1915      N1922   1.431       .  S
C1916      C1917   1.394       .  A
C1916      H1921   1.076       .  S
C1917      C1918   1.423       .  A
C1918      N1919   1.432       .  S
N1919      O1923   1.262       .  A
N1919      O1924   1.259       .  A
N1922      O1926   1.262       .  A
N1922      O1925   1.261       .  A
C1927      C1928   1.404       .  A
C1927      C1932   1.379       .  A
C1927      H1934   1.079       .  S
C1928      C1929   1.416       .  A
C1929      C1930   1.393       .  A
C1929      N1936   1.431       .  S
C1930      C1931   1.398       .  A
C1930      H1935   1.083       .  S
C1931      C1932   1.396       .  A
C1932      N1933   1.430       .  S
N1933      O1937   1.260       .  A
N1933      O2608   1.262       .  A
N1936      O1940   1.262       .  A
N1936      O1939   1.260       .  A
O1938      N2603   1.262   1_545  A
C1941      C1942   1.395       .  A
C1941      C1946   1.392       .  A
C1941      H1948   1.083       .  S
C1942      C1943   1.393       .  A
C1943      C1944   1.382       .  A
C1943      N1950   1.425       .  S
C1944      C1945   1.401       .  A
C1944      H1949   1.077       .  S
C1945      C1946   1.417       .  A
C1946      N1947   1.433       .  S
N1947      O1951   1.262       .  A
N1947      O1952   1.261       .  A
N1950      O1954   1.262       .  A
N1950      O1953   1.262       .  A
C1955      C1956   1.402       .  A
C1955      C1960   1.396       .  A
C1955      H1962   1.084       .  S
C1956      C1957   1.410       .  A
C1957      C1958   1.381       .  A
C1957      N1964   1.429       .  S
C1958      C1959   1.395       .  A
C1958      H1963   1.083       .  S
C1959      C1960   1.414       .  A
C1960      N1961   1.434       .  S
N1961      O1965   1.263       .  A
N1961      O1966   1.262       .  A
N1964      O1968   1.262       .  A
N1964      O1967   1.261       .  A
C1969      C1970   1.404       .  A
C1969      C1974   1.384       .  A
C1969      H1976   1.078       .  S
C1970      C1971   1.424       .  A
C1971      C1972   1.386       .  A
C1971      N1978   1.430       .  S
C1972      C1973   1.387       .  A
C1972      H1977   1.083       .  S
C1973      C1974   1.400       .  A
C1974      N1975   1.428       .  S
N1975      O1979   1.260       .  A
N1975      O1980   1.262       .  A
N1978      O1982   1.261       .  A
N1978      O1981   1.259       .  A
C1983      C1984   1.399       .  A
C1983      C1988   1.382       .  A
C1983      H1990   1.068       .  S
C1984      C1985   1.395       .  A
C1985      C1986   1.391       .  A
C1985      N1992   1.428       .  S
C1986      C1987   1.416       .  A
C1986      H1991   1.081       .  S
C1987      C1988   1.407       .  A
C1988      N1989   1.441       .  S
N1989      O1993   1.263       .  A
N1989      O1994   1.262       .  A
N1992      O1996   1.261       .  A
N1992      O1995   1.262       .  A
C1997      C1998   1.406       .  A
C1997      C2002   1.400       .  A
C1997      H2004   1.083       .  S
C1998      C1999   1.401       .  A
C1999      C2000   1.389       .  A
C1999      N2006   1.429       .  S
C2000      C2001   1.408       .  A
C2000      H2005   1.080       .  S
C2001      C2002   1.419       .  A
C2002      N2003   1.440       .  S
N2003      O2007   1.263       .  A
N2003      O2008   1.262       .  A
N2006      O2010   1.262       .  A
N2006      O2009   1.262       .  A
C2011      C2013   1.565       .  S
C2011      C2015   1.566       .  S
C2011      C2014   1.546       .  S
C2011      C2671   1.520       .  S
C2012      C2016   1.534       .  S
C2012      C2018   1.541       .  S
C2012      C2017   1.555       .  S
C2012      C2657   1.502       .  S
C2013      C2021   1.403       .  A
C2013      C2016   1.383       .  A
C2014      C2025   1.388       .  A
C2014      C2017   1.384       .  A
C2015      C2029   1.397       .  A
C2015      C2018   1.382       .  A
C2016      C2019   1.383       .  A
C2017      C2023   1.397       .  A
C2018      C2026   1.388       .  A
C2019      N2020   1.357       .  A
C2019      H2032   1.083       .  S
N2020      C2021   1.372       .  A
N2020      C2294   1.466       .  S
C2021      H2022   1.081       .  S
C2023      N2024   1.367       .  A
C2023      H2033   1.081       .  S
N2024      C2025   1.363       .  A
N2024      C2054   1.466       .  S
C2025      H2031   1.082       .  S
C2026      N2027   1.354       .  A
C2026      H2028   1.082       .  S
N2027      C2029   1.364       .  A
N2027      C2111   1.458       .  S
C2029      H2030   1.082       .  S
N2034      C2039   1.361       .  A
N2034      H2066   1.040       .  S
N2035      C2042   1.361       .  A
N2035      C2043   1.361       .  A
N2036      C2041   1.360       .  A
N2036      H2067   1.040       .  S
N2037      C2044   1.361       .  A
N2037      C2045   1.361       .  A
C2038      C2046   1.385       .  A
C2038      C2054   1.426       .  A
C2039      C2055   1.430       .  A
C2039      C2047   1.387       .  A
C2040      C2048   1.385       .  A
C2040      C2057   1.423       .  A
C2041      C2056   1.425       .  A
C2041      C2049   1.387       .  A
C2042      C2054   1.428       .  A
C2042      C2050   1.384       .  A
C2043      C2057   1.428       .  A
C2043      C2051   1.385       .  A
C2044      C2052   1.387       .  A
C2044      C2055   1.432       .  A
C2045      C2053   1.385       .  A
C2045      C2056   1.429       .  A
C2046      H2058   1.082       .  S
C2047      H2059   1.082       .  S
C2048      H2060   1.082       .  S
C2049      H2061   1.082       .  S
C2050      C2051   1.379       .  A
C2050      H2062   1.080       .  S
C2051      H2063   1.082       .  S
C2052      C2053   1.380       .  A
C2052      H2064   1.082       .  S
C2053      H2065   1.082       .  S
C2055      N2343   1.470       .  S
C2056      N2084   1.465       .  S
C2057      N2389   1.463       .  S
C2068      C2070   1.560       .  S
C2068      C2072   1.551       .  S
C2068      C2071   1.552       .  S
C2068      C2629   1.505       .  S
C2069      C2073   1.530       .  S
C2069      C2075   1.564       .  S
C2069      C2074   1.551       .  S
C2069      C2640   1.500       .  S
C2070      C2078   1.399       .  A
C2070      C2073   1.370       .  A
C2071      C2082   1.396       .  A
C2071      C2074   1.382       .  A
C2072      C2086   1.390       .  A
C2072      C2075   1.391       .  A
C2073      C2076   1.386       .  A
C2074      C2080   1.395       .  A
C2075      C2083   1.396       .  A
C2076      N2077   1.355       .  A
C2076      H2089   1.083       .  S
N2077      C2078   1.367       .  A
N2077      C2259   1.460       .  S
C2078      H2079   1.082       .  S
C2080      N2081   1.365       .  A
C2080      H2090   1.081       .  S
N2081      C2082   1.368       .  A
N2081      C2145   1.470       .  S
C2082      H2088   1.082       .  S
C2083      N2084   1.366       .  A
C2083      H2085   1.081       .  S
N2084      C2086   1.361       .  A
C2086      H2087   1.080       .  S
N2091      C2095   1.354       .  A
N2091      H2123   1.048       .  S
N2092      C2099   1.360       .  A
N2092      C2100   1.358       .  A
N2093      C2097   1.358       .  A
N2093      H2124   1.048       .  S
N2094      C2101   1.354       .  A
N2094      C2102   1.355       .  A
C2095      C2103   1.386       .  A
C2095      C2111   1.415       .  A
C2096      C2112   1.413       .  A
C2096      C2104   1.382       .  A
C2097      C2105   1.387       .  A
C2097      C2114   1.427       .  A
C2098      C2113   1.427       .  A
C2098      C2106   1.386       .  A
C2099      C2111   1.425       .  A
C2099      C2107   1.385       .  A
C2100      C2114   1.427       .  A
C2100      C2108   1.387       .  A
C2101      C2109   1.382       .  A
C2101      C2112   1.416       .  A
C2102      C2110   1.384       .  A
C2102      C2113   1.415       .  A
C2103      H2115   1.082       .  S
C2104      H2116   1.081       .  S
C2105      H2117   1.082       .  S
C2106      H2118   1.082       .  S
C2107      C2108   1.379       .  A
C2107      H2119   1.082       .  S
C2108      H2120   1.082       .  S
C2109      C2110   1.379       .  A
C2109      H2121   1.082       .  S
C2110      H2122   1.082       .  S
C2112      N2392   1.453       .  S
C2113      N2175   1.458       .  S
C2114      N2369   1.460       .  S
N2125      C2130   1.363       .  A
N2125      H2157   1.033       .  S
N2126      C2133   1.359       .  A
N2126      C2134   1.357       .  A
N2127      C2132   1.365       .  A
N2127      H2158   1.028       .  S
N2128      C2135   1.361       .  A
N2128      C2136   1.360       .  A
C2129      C2137   1.382       .  A
C2129      C2145   1.430       .  A
C2130      C2146   1.430       .  A
C2130      C2138   1.383       .  A
C2131      C2139   1.384       .  A
C2131      C2148   1.433       .  A
C2132      C2147   1.432       .  A
C2132      C2140   1.386       .  A
C2133      C2145   1.421       .  A
C2133      C2141   1.384       .  A
C2134      C2148   1.423       .  A
C2134      C2142   1.383       .  A
C2135      C2143   1.385       .  A
C2135      C2146   1.426       .  A
C2136      C2144   1.386       .  A
C2136      C2147   1.428       .  A
C2137      H2149   1.081       .  S
C2138      H2150   1.081       .  S
C2139      H2151   1.079       .  S
C2140      H2152   1.082       .  S
C2141      C2142   1.379       .  A
C2141      H2153   1.082       .  S
C2142      H2154   1.081       .  S
C2143      C2144   1.377       .  A
C2143      H2155   1.082       .  S
C2144      H2156   1.082       .  S
C2146      N2339   1.469       .  S
C2147      N2225   1.467       .  S
C2148      N2320   1.467       .  S
C2159      C2161   1.546       .  S
C2159      C2163   1.559       .  S
C2159      C2162   1.551       .  S
C2159      C2598   1.509       .  S
C2160      C2164   1.551       .  S
C2160      C2166   1.538       .  S
C2160      C2165   1.564       .  S
C2160      C2615   1.506       .  S
C2161      C2169   1.393       .  A
C2161      C2164   1.383       .  A
C2162      C2173   1.393       .  A
C2162      C2165   1.389       .  A
C2163      C2177   1.395       .  A
C2163      C2166   1.378       .  A
C2164      C2167   1.393       .  A
C2165      C2171   1.394       .  A
C2166      C2174   1.393       .  A
C2167      N2168   1.366       .  A
C2167      H2180   1.082       .  S
N2168      C2169   1.364       .  A
N2168      C2261   1.466       .  S
C2169      H2170   1.082       .  S
C2171      N2172   1.360       .  A
C2171      H2181   1.079       .  S
N2172      C2173   1.366       .  A
N2172      C2202   1.467       .  S
C2173      H2179   1.080       .  S
C2174      N2175   1.362       .  A
C2174      H2176   1.082       .  S
N2175      C2177   1.356       .  A
C2177      H2178   1.081       .  S
N2182      C2187   1.362       .  A
N2182      C2186   1.362       .  A
N2182      H2214   1.038       .  S
N2183      C2191   1.359       .  A
N2184      C2189   1.358       .  A
N2184      C2188   1.359       .  A
N2184      H2215   1.040       .  S
N2185      C2193   1.358       .  A
C2186      C2194   1.388       .  A
C2186      C2202   1.434       .  A
C2187      C2203   1.428       .  A
C2187      C2195   1.384       .  A
C2188      C2196   1.384       .  A
C2188      C2205   1.420       .  A
C2189      C2204   1.423       .  A
C2189      C2197   1.383       .  A
C2190      C2202   1.426       .  A
C2190      C2198   1.387       .  A
C2191      C2205   1.423       .  A
C2191      C2199   1.384       .  A
C2192      C2200   1.386       .  A
C2192      C2203   1.423       .  A
C2193      C2201   1.384       .  A
C2193      C2204   1.420       .  A
C2194      C2195   1.382       .  A
C2194      H2206   1.082       .  S
C2195      H2207   1.082       .  S
C2196      C2197   1.379       .  A
C2196      H2208   1.082       .  S
C2197      H2209   1.078       .  S
C2198      H2210   1.081       .  S
C2199      H2211   1.082       .  S
C2200      H2212   1.082       .  S
C2201      H2213   1.082       .  S
C2203      N2366   1.462       .  S
C2204      N2229   1.461       .  S
C2205      N2323   1.460       .  S
C2216      C2218   1.570       .  S
C2216      C2220   1.540       .  S
C2216      C2219   1.544       .  S
C2216      C2587   1.499       .  S
C2217      C2221   1.559       .  S
C2217      C2223   1.536       .  S
C2217      C2222   1.543       .  S
C2217      C2573   1.495       .  S
C2218      C2226   1.402       .  A
C2218      C2221   1.389       .  A
C2219      C2230   1.387       .  A
C2219      C2222   1.382       .  A
C2220      C2234   1.390       .  A
C2220      C2223   1.370       .  A
C2221      C2224   1.395       .  A
C2222      C2228   1.390       .  A
C2223      C2231   1.386       .  A
C2224      N2225   1.361       .  A
C2224      H2237   1.082       .  S
N2225      C2226   1.365       .  A
C2226      H2227   1.081       .  S
C2228      N2229   1.363       .  A
C2228      H2238   1.080       .  S
N2229      C2230   1.363       .  A
C2230      H2236   1.082       .  S
C2231      N2232   1.360       .  A
C2231      H2233   1.082       .  S
N2232      C2234   1.362       .  A
N2232      C2296   1.458       .  S
C2234      H2235   1.081       .  S
N2239      C2244   1.358       .  A
N2239      C2243   1.357       .  A
N2239      H2271   1.043       .  S
N2240      C2247   1.361       .  A
N2240      C2248   1.362   1_554  A
N2241      C2246   1.360       .  A
N2241      C2245   1.361       .  A
N2241      H2272   1.043       .  S
N2242      C2249   1.361       .  A
N2242      C2250   1.361   1_554  A
C2243      C2251   1.387       .  A
C2243      C2259   1.421       .  A
C2244      C2260   1.421       .  A
C2244      C2252   1.386       .  A
C2245      C2253   1.386       .  A
C2245      C2262   1.427       .  A
C2246      C2261   1.423       .  A
C2246      C2254   1.383       .  A
C2247      C2259   1.429       .  A
C2247      C2255   1.385       .  A
C2248      C2262   1.432       .  A
C2248      C2256   1.386       .  A
C2249      C2257   1.386       .  A
C2249      C2260   1.431       .  A
C2250      C2258   1.383       .  A
C2250      C2261   1.427       .  A
C2251      C2252   1.376       .  A
C2251      H2263   1.082       .  S
C2252      H2264   1.082       .  S
C2253      C2254   1.379       .  A
C2253      H2265   1.082       .  S
C2254      H2266   1.082       .  S
C2255      C2256   1.380   1_554  A
C2255      H2267   1.082       .  S
C2256      H2268   1.081       .  S
C2257      C2258   1.381   1_554  A
C2257      H2269   1.082       .  S
C2258      H2270   1.079       .  S
C2260      N2385   1.464       .  S
C2262      N2316   1.471       .  S
N2273      C2278   1.363       .  A
N2273      C2277   1.362       .  A
N2273      H2305   1.040       .  S
N2274      C2281   1.357   1_556  A
N2274      C2282   1.356       .  A
N2275      C2280   1.356       .  A
N2275      C2279   1.358       .  A
N2275      H2306   1.042       .  S
N2276      C2283   1.358   1_556  A
N2276      C2284   1.359       .  A
C2277      C2285   1.384       .  A
C2277      C2293   1.429       .  A
C2278      C2294   1.433       .  A
C2278      C2286   1.387       .  A
C2279      C2287   1.385       .  A
C2279      C2296   1.418       .  A
C2280      C2295   1.419       .  A
C2280      C2288   1.383       .  A
C2281      C2293   1.419       .  A
C2281      C2289   1.384       .  A
C2282      C2296   1.421       .  A
C2282      C2290   1.384       .  A
C2283      C2291   1.385       .  A
C2283      C2294   1.424       .  A
C2284      C2292   1.385       .  A
C2284      C2295   1.425       .  A
C2285      C2286   1.383       .  A
C2285      H2297   1.082       .  S
C2286      H2298   1.082       .  S
C2287      C2288   1.378       .  A
C2287      H2299   1.082       .  S
C2288      H2300   1.080       .  S
C2289      C2290   1.377   1_554  A
C2289      H2301   1.082       .  S
C2290      H2302   1.079       .  S
C2291      C2292   1.379   1_554  A
C2291      H2303   1.081       .  S
C2292      H2304   1.082       .  S
C2293      N2346   1.463       .  S
C2295      N2362   1.461       .  S
C2307      C2309   1.548       .  S
C2307      C2311   1.551       .  S
C2307      C2310   1.540       .  S
C2307      C2556   1.502       .  S
C2308      C2312   1.572       .  S
C2308      C2314   1.544       .  S
C2308      C2313   1.558       .  S
C2308      C2542   1.513       .  S
C2309      C2317   1.392       .  A
C2309      C2312   1.384       .  A
C2310      C2321   1.390       .  A
C2310      C2313   1.379       .  A
C2311      C2325   1.392       .  A
C2311      C2314   1.384       .  A
C2312      C2315   1.403       .  A
C2313      C2319   1.398       .  A
C2314      C2322   1.388       .  A
C2315      N2316   1.367       .  A
C2315      H2328   1.081       .  S
N2316      C2317   1.360       .  A
C2317      H2318   1.081       .  S
C2319      N2320   1.369       .  A
C2319      H2329   1.081       .  S
N2320      C2321   1.361       .  A
C2321      H2327   1.083       .  S
C2322      N2323   1.362       .  A
C2322      H2324   1.082       .  S
N2323      C2325   1.363       .  A
C2325      H2326   1.081       .  S
C2330      C2332   1.560       .  S
C2330      C2334   1.548       .  S
C2330      C2333   1.565       .  S
C2330      C2514   1.516       .  S
C2331      C2335   1.542       .  S
C2331      C2337   1.548       .  S
C2331      C2336   1.564       .  S
C2331      C2528   1.511       .  S
C2332      C2340   1.398       .  A
C2332      C2335   1.383       .  A
C2333      C2344   1.402       .  A
C2333      C2336   1.387       .  A
C2334      C2348   1.393       .  A
C2334      C2337   1.382       .  A
C2335      C2338   1.391       .  A
C2336      C2342   1.399       .  A
C2337      C2345   1.392       .  A
C2338      N2339   1.364       .  A
C2338      H2351   1.082       .  S
N2339      C2340   1.367       .  A
C2340      H2341   1.081       .  S
C2342      N2343   1.359       .  A
C2342      H2352   1.079       .  S
N2343      C2344   1.363       .  A
C2344      H2350   1.079       .  S
C2345      N2346   1.360       .  A
C2345      H2347   1.081       .  S
N2346      C2348   1.365       .  A
C2348      H2349   1.082       .  S
C2353      C2355   1.552       .  S
C2353      C2357   1.537       .  S
C2353      C2356   1.563       .  S
C2353      C2486   1.515       .  S
C2354      C2358   1.551       .  S
C2354      C2360   1.535       .  S
C2354      C2359   1.555       .  S
C2354      C2503   1.511       .  S
C2355      C2363   1.395       .  A
C2355      C2358   1.382       .  A
C2356      C2367   1.395       .  A
C2356      C2359   1.398       .  A
C2357      C2371   1.386       .  A
C2357      C2360   1.374       .  A
C2358      C2361   1.388       .  A
C2359      C2365   1.389       .  A
C2360      C2368   1.389       .  A
C2361      N2362   1.356       .  A
C2361      H2374   1.081       .  S
N2362      C2363   1.367       .  A
C2363      H2364   1.082       .  S
C2365      N2366   1.363       .  A
C2365      H2375   1.080       .  S
N2366      C2367   1.362       .  A
C2367      H2373   1.081       .  S
C2368      N2369   1.365       .  A
C2368      H2370   1.082       .  S
N2369      C2371   1.362       .  A
C2371      H2372   1.082       .  S
C2376      C2378   1.563       .  S
C2376      C2380   1.546       .  S
C2376      C2379   1.539       .  S
C2376      C2472   1.497       .  S
C2377      C2381   1.531       .  S
C2377      C2383   1.544       .  S
C2377      C2382   1.563       .  S
C2377      C2461   1.496       .  S
C2378      C2386   1.401       .  A
C2378      C2381   1.374       .  A
C2379      C2390   1.386       .  A
C2379      C2382   1.386       .  A
C2380      C2394   1.387       .  A
C2380      C2383   1.382       .  A
C2381      C2384   1.384       .  A
C2382      C2388   1.397       .  A
C2383      C2391   1.390       .  A
C2384      N2385   1.355       .  A
C2384      H2397   1.082       .  S
N2385      C2386   1.370       .  A
C2386      H2387   1.081       .  S
C2388      N2389   1.367       .  A
C2388      H2398   1.081       .  S
N2389      C2390   1.360       .  A
C2390      H2396   1.082       .  S
C2391      N2392   1.361       .  A
C2391      H2393   1.082       .  S
N2392      C2394   1.357       .  A
C2394      H2395   1.081       .  S
O2399      C2407   1.268       .  A
O2400      C2408   1.285       .  A
O2400     Co2420   2.030       .  S
O2401      C2409   1.269       .  A
O2401     Co2421   1.891       .  S
O2402      C2410   1.253       .  A
O2402     Co2422   1.972   1_554  S
O2403      C2409   1.288       .  A
O2404      C2410   1.265       .  A
O2404     Co2419   2.000       .  S
O2405      C2408   1.264       .  A
O2405     Co2422   1.880       .  S
O2406      C2407   1.250       .  A
O2406     Co2421   1.960   1_554  S
C2407      C2668   1.467       .  S
C2408      C2570   1.428       .  S
C2409      C2500   1.461       .  S
C2410      C2517   1.450       .  S
O2411      C2424   1.254       .  A
O2412      C2425   1.245       .  A
O2413      C2426   1.266       .  A
O2414      C2427   1.235       .  A
O2415      C2427   1.249       .  A
O2416      C2426   1.249       .  A
O2417      C2424   1.262       .  A
O2418      C2425   1.234       .  A
Co2419     O2423   2.049       .  S
Co2420     O2423   2.227   1_556  S
Co2422     O2423   1.894   1_556  S
C2424      C2643   1.441       .  S
C2425      C2601   1.439       .  S
C2426      C2458   1.438       .  S
C2427      C2559   1.436       .  S
O2428      C2436   1.251       .  A
O2428     Co2448   1.935       .  S
O2429      C2437   1.266       .  A
O2429     Co2449   1.873       .  S
O2430      C2438   1.278       .  A
O2430     Co2450   2.029       .  S
O2431      C2439   1.259       .  A
O2431     Co2451   1.999       .  S
O2432      C2438   1.263       .  A
O2432     Co2449   1.939       .  S
O2433      C2439   1.242       .  A
O2433     Co2448   1.928       .  S
O2434      C2437   1.291       .  A
O2434     Co2451   2.095       .  S
O2435      C2436   1.269       .  A
O2435     Co2450   2.006       .  S
C2436      C2531   1.444       .  S
C2437      C2545   1.448       .  S
C2438      C2626   1.455       .  S
C2439      C2584   1.439       .  S
O2440      C2453   1.281       .  A
O2440     Co2448   2.019       .  S
O2441      C2454   1.258       .  A
O2441     Co2449   1.988       .  S
O2442      C2455   1.252       .  A
O2442     Co2450   1.931       .  S
O2443      C2456   1.266       .  A
O2443     Co2451   1.879       .  S
O2444      C2456   1.285       .  A
O2444     Co2449   2.075       .  S
O2445      C2455   1.269       .  A
O2445     Co2448   2.022       .  S
O2446      C2453   1.266       .  A
O2446     Co2451   1.951       .  S
O2447      C2454   1.242       .  A
O2447     Co2450   1.925       .  S
Co2448     O2452   1.971       .  S
Co2449     O2452   1.961       .  S
Co2450     O2452   1.972       .  S
Co2451     O2452   1.978       .  S
C2453      C2489   1.460       .  S
C2454      C2475   1.425       .  S
C2455      C2654   1.452       .  S
C2456      C2612   1.433       .  S
C2457      C2458   1.386       .  A
C2457      C2462   1.384       .  A
C2457      H2464   1.085       .  S
C2458      C2459   1.404       .  A
C2459      C2460   1.380       .  A
C2459      N2466   1.427       .  S
C2460      C2461   1.398       .  A
C2460      H2465   1.077       .  S
C2461      C2462   1.428       .  A
C2462      N2463   1.432       .  S
N2463      O2467   1.261       .  A
N2463      O2468   1.262       .  A
N2466      O2470   1.260       .  A
N2466      O2469   1.261       .  A
C2471      C2472   1.393       .  A
C2471      C2476   1.377       .  A
C2471      H2478   1.081       .  S
C2472      C2473   1.422       .  A
C2473      C2474   1.388       .  A
C2473      N2480   1.436       .  S
C2474      C2475   1.383       .  A
C2474      H2479   1.085       .  S
C2475      C2476   1.408       .  A
C2476      N2477   1.428       .  S
N2477      O2481   1.257       .  A
N2477      O2482   1.260       .  A
N2480      O2484   1.263       .  A
N2480      O2483   1.261       .  A
C2485      C2486   1.407       .  A
C2485      C2490   1.394       .  A
C2485      H2492   1.079       .  S
C2486      C2487   1.427       .  A
C2487      C2488   1.393       .  A
C2487      N2494   1.439       .  S
C2488      C2489   1.394       .  A
C2488      H2493   1.084       .  S
C2489      C2490   1.404       .  A
C2490      N2491   1.432       .  S
N2491      O2495   1.262       .  A
N2491      O2496   1.261       .  A
N2494      O2498   1.263       .  A
N2494      O2497   1.261       .  A
C2499      C2500   1.407       .  A
C2499      C2504   1.394       .  A
C2499      H2506   1.083       .  S
C2500      C2501   1.405       .  A
C2501      C2502   1.385       .  A
C2501      N2508   1.431       .  S
C2502      C2503   1.407       .  A
C2502      H2507   1.083       .  S
C2503      C2504   1.410       .  A
C2504      N2505   1.435       .  S
N2505      O2509   1.262       .  A
N2505      O2510   1.263       .  A
N2508      O2512   1.262       .  A
N2508      O2511   1.262       .  A
C2513      C2514   1.406       .  A
C2513      C2518   1.391       .  A
C2513      H2520   1.075       .  S
C2514      C2515   1.412       .  A
C2515      C2516   1.390       .  A
C2515      N2522   1.430       .  S
C2516      C2517   1.396       .  A
C2516      H2521   1.082       .  S
C2517      C2518   1.401       .  A
C2518      N2519   1.429       .  S
N2519      O2523   1.261       .  A
N2519      O2524   1.262       .  A
N2522      O2526   1.258       .  A
N2522      O2525   1.261       .  A
C2527      C2528   1.399       .  A
C2527      C2532   1.384       .  A
C2527      H2534   1.079       .  S
C2528      C2529   1.414       .  A
C2529      C2530   1.391       .  A
C2529      N2536   1.435       .  S
C2530      C2531   1.398       .  A
C2530      H2535   1.085       .  S
C2531      C2532   1.405       .  A
C2532      N2533   1.431       .  S
N2533      O2537   1.262       .  A
N2533      O2538   1.262       .  A
N2536      O2540   1.262       .  A
N2536      O2539   1.261       .  A
C2541      C2542   1.401       .  A
C2541      C2546   1.386       .  A
C2541      H2548   1.078       .  S
C2542      C2543   1.419       .  A
C2543      C2544   1.394       .  A
C2543      N2550   1.434       .  S
C2544      C2545   1.395       .  A
C2544      H2549   1.085       .  S
C2545      C2546   1.403       .  A
C2546      N2547   1.429       .  S
N2547      O2551   1.261       .  A
N2547      O2552   1.260       .  A
N2550      O2554   1.262       .  A
N2550      O2553   1.261       .  A
C2555      C2556   1.407       .  A
C2555      C2560   1.388       .  A
C2555      H2562   1.079       .  S
C2556      C2557   1.421       .  A
C2557      C2558   1.382       .  A
C2557      N2564   1.436       .  S
C2558      C2559   1.390       .  A
C2558      H2563   1.084       .  S
C2559      C2560   1.396       .  A
C2560      N2561   1.427       .  S
N2561      O2565   1.261       .  A
N2561      O2566   1.262       .  A
N2564      O2568   1.260       .  A
N2564      O2567   1.263       .  A
C2569      C2570   1.391       .  A
C2569      C2574   1.388       .  A
C2569      H2576   1.084       .  S
C2570      C2571   1.395       .  A
C2571      C2572   1.376       .  A
C2571      N2578   1.427       .  S
C2572      C2573   1.405       .  A
C2572      H2577   1.079       .  S
C2573      C2574   1.422       .  A
C2574      N2575   1.431       .  S
N2575      O2579   1.262       .  A
N2575      O2580   1.261       .  A
N2578      O2582   1.262       .  A
N2578      O2581   1.262       .  A
C2583      C2584   1.387       .  A
C2583      C2588   1.387       .  A
C2583      H2590   1.080       .  S
C2584      C2585   1.409       .  A
C2585      C2586   1.379       .  A
C2585      N2592   1.431       .  S
C2586      C2587   1.394       .  A
C2586      H2591   1.076       .  S
C2587      C2588   1.423       .  A
C2588      N2589   1.432       .  S
N2589      O2593   1.262       .  A
N2589      O2594   1.259       .  A
N2592      O2596   1.262       .  A
N2592      O2595   1.261       .  A
C2597      C2598   1.404       .  A
C2597      C2602   1.379       .  A
C2597      H2604   1.079       .  S
C2598      C2599   1.416       .  A
C2599      C2600   1.393       .  A
C2599      N2606   1.431       .  S
C2600      C2601   1.398       .  A
C2600      H2605   1.083       .  S
C2601      C2602   1.396       .  A
C2602      N2603   1.430       .  S
N2603      O2607   1.260   1_565  A
N2606      O2610   1.262       .  A
N2606      O2609   1.260       .  A
C2611      C2612   1.395       .  A
C2611      C2616   1.392       .  A
C2611      H2618   1.083       .  S
C2612      C2613   1.393       .  A
C2613      C2614   1.383       .  A
C2613      N2620   1.425       .  S
C2614      C2615   1.401       .  A
C2614      H2619   1.077       .  S
C2615      C2616   1.417       .  A
C2616      N2617   1.433       .  S
N2617      O2621   1.262       .  A
N2617      O2622   1.261       .  A
N2620      O2624   1.262       .  A
N2620      O2623   1.262       .  A
C2625      C2626   1.402       .  A
C2625      C2630   1.396       .  A
C2625      H2632   1.084       .  S
C2626      C2627   1.410       .  A
C2627      C2628   1.381       .  A
C2627      N2634   1.429       .  S
C2628      C2629   1.395       .  A
C2628      H2633   1.083       .  S
C2629      C2630   1.414       .  A
C2630      N2631   1.434       .  S
N2631      O2635   1.263       .  A
N2631      O2636   1.262       .  A
N2634      O2638   1.262       .  A
N2634      O2637   1.261       .  A
C2639      C2640   1.404       .  A
C2639      C2644   1.384       .  A
C2639      H2646   1.078       .  S
C2640      C2641   1.424       .  A
C2641      C2642   1.386       .  A
C2641      N2648   1.430       .  S
C2642      C2643   1.387       .  A
C2642      H2647   1.083       .  S
C2643      C2644   1.399       .  A
C2644      N2645   1.428       .  S
N2645      O2649   1.260       .  A
N2645      O2650   1.262       .  A
N2648      O2652   1.261       .  A
N2648      O2651   1.259       .  A
C2653      C2654   1.399       .  A
C2653      C2658   1.382       .  A
C2653      H2660   1.068       .  S
C2654      C2655   1.395       .  A
C2655      C2656   1.391       .  A
C2655      N2662   1.428       .  S
C2656      C2657   1.416       .  A
C2656      H2661   1.081       .  S
C2657      C2658   1.407       .  A
C2658      N2659   1.441       .  S
N2659      O2663   1.263       .  A
N2659      O2664   1.262       .  A
N2662      O2666   1.261       .  A
N2662      O2665   1.262       .  A
C2667      C2668   1.406       .  A
C2667      C2672   1.400       .  A
C2667      H2674   1.083       .  S
C2668      C2669   1.401       .  A
C2669      C2670   1.389       .  A
C2669      N2676   1.429       .  S
C2670      C2671   1.408       .  A
C2670      H2675   1.080       .  S
C2671      C2672   1.418       .  A
C2672      N2673   1.440       .  S
N2673      O2677   1.263       .  A
N2673      O2678   1.262       .  A
N2676      O2680   1.262       .  A
N2676      O2679   1.262       .  A
