geometry optimzed in LAMMPS
_audit_creation_date              2020-12-01 
_audit_creation_method            'lammps2cif' 
_symmetry_space_group_name_H-M    'P1' 
_symmetry_Int_Tables_number       1 
_symmetry_cell_setting            triclinic 
loop_ 
_symmetry_equiv_pos_as_xyz 
  x,y,z 
_cell_length_a                    57.11580622 
_cell_length_b                    58.35992088431193 
_cell_length_c                    57.37000448824125 
_cell_angle_alpha                 89.23574031674394 
_cell_angle_beta                  90.07796802883615 
_cell_angle_gamma                 90.4776544588336 
loop_ 
_atom_site_label 
_atom_site_type_symbol 
_atom_site_fract_x 
_atom_site_fract_y 
_atom_site_fract_z 
_atom_site_charge 
N1          N  0.82567886  0.82636950  0.00485327    -0.02900
C2          C  0.82458462  0.81588544  0.02619390    -0.00300
C3          C  0.82633697  0.79243584  0.02422935    -0.23200
C4          C  0.82800046  0.78807810  0.00095377    -0.23400
C5          C  0.82697173  0.80893448  0.98927326    -0.00400
H6          H  0.82475112  0.77975684  0.03808884     0.13300
H7          H  0.82676490  0.77129132  0.99321486     0.13400
N8          N  0.76973804  0.17950855  0.99938258    -0.02900
C9          C  0.75372686  0.17709649  0.01682359    -0.00300
C10         C  0.73181566  0.17199984  0.00811987    -0.23200
C11         C  0.73400987  0.17173972  0.98443968    -0.23400
C12         C  0.75713165  0.17694739  0.97940133    -0.00400
H13         H  0.71554773  0.17120205  0.01776468     0.13300
H14         H  0.71961687  0.17126081  0.97214675     0.13400
N15         N  0.18975654  0.88136191  0.00683103    -0.02900
C16         C  0.20114286  0.87974973  0.02753418    -0.00300
C17         C  0.22447929  0.87494731  0.02418084    -0.23200
C18         C  0.22752449  0.87315501  0.00058819    -0.23400
C19         C  0.20596276  0.87694430  0.99025110    -0.00400
H20         H  0.23734596  0.87110517  0.03750787     0.13300
H21         H  0.24313142  0.86704133  0.99206893     0.13400
N22         N  0.83056412  0.03978073  0.79489253    -0.02900
C23         C  0.82861670  0.06092179  0.78520105    -0.00300
C24         C  0.82396888  0.05960356  0.76165220    -0.23200
C25         C  0.82326431  0.03675287  0.75651308    -0.23400
C26         C  0.82750772  0.02492886  0.77712215    -0.00400
H27         H  0.82017161  0.07369637  0.74982857     0.13300
H28         H  0.81844926  0.02948245  0.73990526     0.13400
N29         N  0.98489026  0.17960336  0.79690107    -0.02900
C30         C  0.96472369  0.17412458  0.78538239    -0.00300
C31         C  0.96995629  0.16491507  0.76390609    -0.23200
C32         C  0.99366641  0.16672265  0.76102732    -0.23400
C33         C  0.00228016  0.17636649  0.78110976    -0.00400
H34         H  0.95759623  0.16136121  0.75006384     0.13300
H35         H  0.00311609  0.16402320  0.74497228     0.13400
N36         N  0.98521720  0.87708788  0.80091702    -0.02900
C37         C  0.96368294  0.87093260  0.79286906    -0.00300
C38         C  0.96453263  0.86638481  0.76935325    -0.23200
C39         C  0.98724457  0.86995523  0.76249015    -0.23400
C40         C  0.99961112  0.87652014  0.78204461    -0.00400
H41         H  0.95026267  0.86036736  0.75854950     0.13300
H42         H  0.99437327  0.86646676  0.74544209     0.13400
N43         N  0.19105622  0.02700423  0.85721224    -0.02900
C44         C  0.20335255  0.04673915  0.85407426    -0.00300
C45         C  0.22667979  0.04210519  0.85019149    -0.23200
C46         C  0.22886393  0.01870602  0.85100491    -0.23400
C47         C  0.20676535  0.00984811  0.85543675    -0.00400
H48         H  0.24022718  0.05433739  0.84535360     0.13300
H49         H  0.24449465  0.00918291  0.84700059     0.13400
N50         N  0.97220811  0.81426929  0.14715274    -0.02900
C51         C  0.95433025  0.79851554  0.14747014    -0.00300
C52         C  0.96322066  0.77656780  0.14665255    -0.23200
C53         C  0.98700929  0.77859304  0.14670670    -0.23400
C54         C  0.99227977  0.80167392  0.14801245    -0.00400
H55         H  0.95353854  0.76061703  0.14840279     0.13300
H56         H  0.99907162  0.76457542  0.14937471     0.13400
N57         N  0.77362345  0.03441827  0.16208688    -0.02900
C58         C  0.76616873  0.05593890  0.16647751    -0.00300
C59         C  0.74236280  0.05620531  0.17035430    -0.23200
C60         C  0.73465853  0.03408034  0.16844286    -0.23400
C61         C  0.75402797  0.02096686  0.16343880    -0.00400
H62         H  0.73197182  0.07079582  0.17525702     0.13300
H63         H  0.71709335  0.02794149  0.17209983     0.13400
N64         N  0.98188961  0.17131088  0.21875733    -0.02900
C65         C  0.96133630  0.17266239  0.23058404    -0.00300
C66         C  0.96516788  0.17053974  0.25426036    -0.23200
C67         C  0.98880436  0.16849185  0.25734194    -0.23400
C68         C  0.99883746  0.16924205  0.23541219    -0.00400
H69         H  0.95247868  0.17321048  0.26793584     0.13300
H70         H  0.99781940  0.16922427  0.27392023     0.13400
Zr71       Zr  0.25877935  0.29597269  0.29041514     2.17500
O72         O  0.28681312  0.28029632  0.31834975    -0.50800
O73         O  0.26095166  0.33604512  0.30090583    -0.74000
O74         O  0.29737661  0.30888985  0.28014144    -0.80800
O75         O  0.20716188  0.28741003  0.33157552    -0.82500
O76         O  0.29927937  0.31062172  0.24066745    -0.78200
O77         O  0.24603205  0.29652402  0.32998348    -0.89800
O78         O  0.23864677  0.35575154  0.27477600    -0.75800
O79         O  0.25531446  0.31568233  0.25410349    -0.85200
O80         O  0.21958006  0.30918573  0.28863048    -0.84900
O81         O  0.26982523  0.26858510  0.26176362    -0.71700
O82         O  0.23494975  0.26226182  0.29487141    -0.83800
Zr83       Zr  0.20180197  0.26706631  0.22761686     2.26400
Zr84       Zr  0.26517215  0.28851084  0.22508401     2.06300
Zr85       Zr  0.19530580  0.27584666  0.29222612     2.10000
Zr86       Zr  0.21600776  0.32827457  0.25213869     1.78800
O87         O  0.18152582  0.24813168  0.32126658    -0.92600
O88         O  0.22835609  0.35739755  0.22374638    -0.40400
O89         O  0.19081365  0.29516169  0.25541743    -0.77100
O90         O  0.22524727  0.30107710  0.22252732    -0.95800
O91         O  0.24129328  0.25476279  0.22902075    -0.89100
O92         O  0.20571637  0.24792414  0.26415499    -0.91900
C93         C  0.25299800  0.35465989  0.29198861     1.01800
C94         C  0.22661388  0.29407523  0.34076201     1.14800
C95         C  0.30746059  0.31516973  0.26122655     1.05600
O96         O  0.27198148  0.31859799  0.19601955    -0.94100
O97         O  0.25380561  0.27301822  0.18639133    -0.89800
O98         O  0.21575900  0.26111973  0.18902888    -0.82900
C99         C  0.23490993  0.26394536  0.17788130     1.12200
O100        O  0.27727388  0.22371354  0.29063949    -0.96000
Zr101      Zr  0.24500830  0.23526563  0.26531100     1.88900
O102        O  0.19728507  0.22682190  0.21949043    -0.72700
O103        O  0.29958876  0.26699162  0.21364499    -0.51900
O104        O  0.27325759  0.21349970  0.24300428    -0.96600
O105        O  0.23209841  0.20664598  0.29397438    -0.53800
O106        O  0.22285349  0.20746370  0.24239343    -0.73200
C107        C  0.20637231  0.20817143  0.22710548     0.99100
O108        O  0.17346181  0.28261759  0.19998433    -0.62000
O109        O  0.16507586  0.30330365  0.30190902    -0.56800
O110        O  0.16315711  0.25427524  0.23816521    -0.93500
O111        O  0.15940371  0.25691993  0.27755340    -0.91900
O112        O  0.18762014  0.34889901  0.27536786    -0.92300
O113        O  0.18424100  0.34132052  0.22704349    -0.91100
C114        C  0.15201605  0.25083030  0.25724557     1.18000
H115        H  0.21632066  0.31981917  0.30094294     0.33900
H116        H  0.22233096  0.30771216  0.20729375     0.44800
H117        H  0.19550138  0.23477095  0.26559057     0.38300
H118        H  0.28600939  0.26430056  0.26395362     0.34800
H119        H  0.24266893  0.36443621  0.23038862     0.26600
H120        H  0.30639226  0.27593183  0.20048544     0.32500
H121        H  0.27375496  0.22111606  0.22748931     0.38400
H122        H  0.19083103  0.36529162  0.27190491     0.32900
H123        H  0.15282750  0.30127564  0.28987083     0.31800
H124        H  0.18948500  0.23371854  0.31722613     0.33400
H125        H  0.21572447  0.20295784  0.28964817     0.32400
H126        H  0.17006121  0.33351935  0.23326216     0.36400
H127        H  0.16370566  0.29300015  0.20933155     0.29100
H128        H  0.29554129  0.29370522  0.32437444     0.33400
H129        H  0.27861087  0.20692115  0.28884820     0.36200
H130        H  0.15794294  0.29713179  0.31643008     0.28800
H131        H  0.18261750  0.29302588  0.18964627     0.41700
H132        H  0.28495569  0.31286742  0.18633555     0.31800
H133        H  0.23404972  0.34870688  0.21021737     0.39400
H134        H  0.23077210  0.21513343  0.30873504     0.31200
H135        H  0.31094060  0.26894210  0.22653995     0.31300
H136        H  0.29833652  0.27193974  0.30887348     0.31600
N137        N  0.17801191  0.03568475  0.17065056    -0.02900
C138        C  0.18678410  0.05713024  0.17329949    -0.00300
C139        C  0.20973422  0.05644869  0.18082560    -0.23200
C140        C  0.21553858  0.03380284  0.18264957    -0.23400
C141        C  0.19590390  0.02141223  0.17627123    -0.00400
H142        H  0.22069496  0.07090421  0.18547909     0.13300
H143        H  0.23192608  0.02702724  0.18911475     0.13400
Zr144      Zr  0.25239613  0.75399106  0.27581229     2.17500
O145        O  0.28680078  0.73291365  0.26350038    -0.50800
O146        O  0.25016931  0.73955850  0.31544093    -0.74000
O147        O  0.28662678  0.76957031  0.29471543    -0.80800
O148        O  0.20696108  0.70783666  0.26330692    -0.82500
O149        O  0.28758458  0.80830421  0.28923287    -0.78200
O150        O  0.24496855  0.71353476  0.27390912    -0.89800
O151        O  0.22182065  0.75930054  0.33382101    -0.75800
O152        O  0.24426213  0.78893220  0.29482893    -0.85200
O153        O  0.21224133  0.75111109  0.28647320    -0.84900
O154        O  0.26172492  0.78353109  0.24774310    -0.71700
O155        O  0.23154030  0.74779770  0.24009857    -0.83800
Zr156      Zr  0.19114002  0.81055280  0.24307325     2.26400
Zr157      Zr  0.25250450  0.81877388  0.26681739     2.06300
Zr158      Zr  0.19100104  0.74565094  0.25114133     2.10000
Zr159      Zr  0.20430588  0.78592276  0.30570265     1.78800
O160        O  0.18647973  0.72211052  0.21666577    -0.92600
O161        O  0.21764960  0.81086785  0.33681389    -0.40400
O162        O  0.18217109  0.78070526  0.27065248    -0.77100
O163        O  0.21217993  0.81689364  0.27858931    -0.95800
O164        O  0.23094732  0.81325504  0.23174813    -0.89100
O165        O  0.19895007  0.77572979  0.22353938    -0.91900
C166        C  0.23765400  0.74377205  0.33338916     1.01800
C167        C  0.22719597  0.70056729  0.27024393     1.14800
C168        C  0.29586181  0.78941839  0.29754127     1.05600
O169        O  0.25614916  0.84842549  0.29606302    -0.94100
O170        O  0.23957384  0.85552869  0.24924612    -0.89800
O171        O  0.20205950  0.84997066  0.23724674    -0.82900
C172        C  0.22043552  0.86243421  0.23948838     1.12200
O173        O  0.27489022  0.75949548  0.20101694    -0.96000
Zr174      Zr  0.23904710  0.77847096  0.21279635     1.88900
O175        O  0.18773380  0.81968512  0.20200135    -0.72700
O176        O  0.28641159  0.83329409  0.24527141    -0.51900
O177        O  0.26559742  0.80333807  0.19067358    -0.96600
O178        O  0.22959563  0.74895965  0.18459397    -0.53800
O179        O  0.21688709  0.80057368  0.18414841    -0.73200
C180        C  0.19942715  0.81435260  0.18386467     0.99100
O181        O  0.16019707  0.83507897  0.25748795    -0.62000
O182        O  0.16015545  0.72547913  0.27262223    -0.56800
O183        O  0.15272801  0.79688181  0.23394335    -0.93500
O184        O  0.15208552  0.75792398  0.23664326    -0.91900
O185        O  0.17170714  0.76555380  0.32403234    -0.92300
O186        O  0.17247650  0.81041206  0.31820216    -0.91100
C187        C  0.14237595  0.77746994  0.23235793     1.18000
H188        H  0.20908793  0.73822506  0.29665205     0.33900
H189        H  0.20770794  0.83131837  0.28523909     0.44800
H190        H  0.18906489  0.77394058  0.20999498     0.38300
H191        H  0.27817291  0.78309959  0.24411561     0.34800
H192        H  0.21116954  0.80380366  0.35123591     0.26600
H193        H  0.29340271  0.84504008  0.25552240     0.32500
H194        H  0.26388366  0.79842666  0.17429358     0.38400
H195        H  0.15981238  0.76406746  0.31156953     0.32900
H196        H  0.16786172  0.71964564  0.28695817     0.31800
H197        H  0.17447063  0.72996208  0.20707988     0.33400
H198        H  0.23591499  0.75499735  0.16964644     0.32400
H199        H  0.17049566  0.82177016  0.30540782     0.36400
H200        H  0.16807886  0.84627568  0.26773544     0.29100
H201        H  0.29336721  0.72625782  0.27805076     0.33400
H202        H  0.27665604  0.74664541  0.21230597     0.36200
H203        H  0.14967685  0.73767707  0.27817928     0.28800
H204        H  0.15506456  0.84418526  0.24374539     0.41700
H205        H  0.24848450  0.84179287  0.31009401     0.31800
H206        H  0.23471873  0.80824446  0.33792920     0.39400
H207        H  0.21239482  0.74971479  0.18266060     0.31200
H208        H  0.29786861  0.82065766  0.24543675     0.31300
H209        H  0.29835757  0.74471572  0.25850521     0.31600
Zr210      Zr  0.76368164  0.26896564  0.21698659     2.17500
O211        O  0.78863281  0.28342130  0.18553595    -0.50800
O212        O  0.77067021  0.22828871  0.21342816    -0.74000
O213        O  0.80384157  0.26348823  0.22656533    -0.80800
O214        O  0.71060523  0.26221155  0.17806409    -0.82500
O215        O  0.80853723  0.27087655  0.26510938    -0.78200
O216        O  0.75028714  0.25889037  0.17928947    -0.89800
O217        O  0.74894889  0.21049605  0.24140370    -0.75800
O218        O  0.76469278  0.25598095  0.25638658    -0.85200
O219        O  0.72649879  0.25150299  0.22363301    -0.84900
O220        O  0.77247157  0.30252444  0.23885486    -0.71700
O221        O  0.73579103  0.29797077  0.20750973    -0.83800
Zr222      Zr  0.70696001  0.30203041  0.27667172     2.26400
Zr223      Zr  0.77217214  0.28950860  0.27876397     2.06300
Zr224      Zr  0.69829996  0.28047791  0.21503850     2.10000
Zr225      Zr  0.72730683  0.23923569  0.26311013     1.78800
O226        O  0.68314256  0.30333373  0.18265842    -0.92600
O227        O  0.74717962  0.21741173  0.29364460    -0.40400
O228        O  0.69840925  0.26805755  0.25514598    -0.77100
O229        O  0.73446743  0.27257290  0.28614758    -0.95800
O230        O  0.74429864  0.31885497  0.27016329    -0.89100
O231        O  0.70617309  0.31426453  0.23707432    -0.91900
C232        C  0.76331261  0.21021637  0.22412905     1.01800
C233        C  0.73048102  0.25605130  0.16939527     1.14800
C234        C  0.81597122  0.26358456  0.24524419     1.05600
O235        O  0.78597898  0.26760366  0.31240811    -0.94100
O236        O  0.76039115  0.30729797  0.31592410    -0.89800
O237        O  0.72137556  0.31476217  0.31340869    -0.82900
C238        C  0.74099243  0.31512594  0.32410061     1.12200
O239        O  0.76802791  0.34044273  0.19685052    -0.96000
Zr240      Zr  0.74361717  0.33116600  0.23056849     1.88900
O241        O  0.70027500  0.34304001  0.27873040    -0.72700
O242        O  0.80240096  0.31883570  0.28295325    -0.51900
O243        O  0.77539784  0.35630268  0.24295831    -0.96600
O244        O  0.72280079  0.35477217  0.20199564    -0.53800
O245        O  0.72398466  0.36082213  0.25250032    -0.73200
C246        C  0.70875318  0.36120988  0.26891579     0.99100
O247        O  0.68284007  0.28731194  0.30855943    -0.62000
O248        O  0.66957635  0.25001375  0.20903951    -0.56800
O249        O  0.66621306  0.30565604  0.26785386    -0.93500
O250        O  0.66052976  0.29519631  0.23016960    -0.91900
O251        O  0.69661948  0.21290920  0.25056590    -0.92300
O252        O  0.70303559  0.22681238  0.29586589    -0.91100
C253        C  0.65323833  0.30295568  0.24991142     1.18000
H254        H  0.72399837  0.23838793  0.21384606     0.33900
H255        H  0.73319161  0.26843316  0.30245832     0.44800
H256        H  0.69415349  0.32553828  0.23449431     0.38300
H257        H  0.78787747  0.30834979  0.23476839     0.34800
H258        H  0.74869059  0.20175209  0.28741967     0.26600
H259        H  0.79396994  0.33240177  0.28868378     0.32500
H260        H  0.77020249  0.37193699  0.23867891     0.38400
H261        H  0.70328333  0.19745945  0.25305792     0.32900
H262        H  0.67899816  0.23604400  0.20683091     0.31800
H263        H  0.66595480  0.30106583  0.18328334     0.33400
H264        H  0.72527196  0.37076409  0.20704559     0.32400
H265        H  0.68792406  0.23466867  0.29343125     0.36400
H266        H  0.67537985  0.27347179  0.30197724     0.29100
H267        H  0.79937439  0.27072037  0.18191332     0.33400
H268        H  0.76906008  0.35738248  0.19617205     0.36200
H269        H  0.66206665  0.24767519  0.22444115     0.28800
H270        H  0.69390360  0.28108169  0.32028200     0.41700
H271        H  0.79929372  0.27665862  0.31857203     0.31800
H272        H  0.76336545  0.22360535  0.29380762     0.39400
H273        H  0.70595537  0.35172643  0.20475747     0.31200
H274        H  0.81188996  0.31360589  0.29643171     0.31300
H275        H  0.79870612  0.29528112  0.19272375     0.31600
Zr276      Zr  0.68498377  0.75634839  0.26365420     2.17500
O277        O  0.65360464  0.73182779  0.24914563    -0.50800
O278        O  0.67956619  0.74696845  0.30463060    -0.74000
O279        O  0.69614728  0.71691502  0.26621017    -0.80800
O280        O  0.64308821  0.80612961  0.26764024    -0.82500
O281        O  0.73564680  0.71468059  0.26193252    -0.78200
O282        O  0.64559041  0.76742771  0.27124419    -0.89800
O283        O  0.70441205  0.76987171  0.32483176    -0.75800
O284        O  0.72355511  0.75654466  0.27916193    -0.85200
O285        O  0.68903157  0.79223091  0.28246001    -0.84900
O286        O  0.71005272  0.75056923  0.23078812    -0.71700
O287        O  0.67704634  0.78447491  0.23392552    -0.83800
Zr288      Zr  0.74573410  0.81616419  0.23612292     2.26400
Zr289      Zr  0.74914256  0.75211293  0.24649864     2.06300
Zr290      Zr  0.68171717  0.82068183  0.25302846     2.10000
Zr291      Zr  0.72776834  0.79253850  0.29753129     1.78800
O292        O  0.65051713  0.83715774  0.22940681    -0.92600
O293        O  0.75719765  0.77119812  0.31939314    -0.40400
O294        O  0.72069782  0.82208051  0.26885985    -0.77100
O295        O  0.75422144  0.78811989  0.26553715    -0.95800
O296        O  0.74177731  0.78047394  0.21731682    -0.89100
O297        O  0.70717544  0.81559459  0.22034979    -0.91900
C298        C  0.68824145  0.75449015  0.32370101     1.01800
C299        C  0.63425932  0.78613379  0.27275586     1.14800
C300        C  0.71536468  0.70587282  0.26658117     1.05600
O301        O  0.78136490  0.74240010  0.27253507    -0.94100
O302        O  0.78499851  0.76562266  0.22595880    -0.89800
O303        O  0.78399614  0.80447089  0.22463966    -0.82900
C304        C  0.79397241  0.78541815  0.22051403     1.12200
O305        O  0.67534188  0.75171873  0.18738027    -0.96000
Zr306      Zr  0.70343306  0.77979489  0.20177419     1.88900
O307        O  0.75298671  0.82392927  0.19548643    -0.72700
O308        O  0.75944386  0.72255540  0.21878260    -0.51900
O309        O  0.71991231  0.75400249  0.17323239    -0.96600
O310        O  0.67329690  0.79920385  0.17897890    -0.53800
O311        O  0.72812045  0.80182262  0.17460769    -0.73200
C312        C  0.74512707  0.81637240  0.17616114     0.99100
O313        O  0.77490112  0.84124440  0.25375664    -0.62000
O314        O  0.67419115  0.84726011  0.28444129    -0.56800
O315        O  0.73503897  0.85508516  0.22960309    -0.93500
O316        O  0.69604749  0.85825663  0.23737679    -0.91900
O317        O  0.71341772  0.81845564  0.32707178    -0.92300
O318        O  0.75737058  0.81915721  0.31194971    -0.91100
C319        C  0.71592902  0.86625090  0.22988720     1.18000
H320        H  0.67797545  0.79369217  0.29505540     0.33900
H321        H  0.77028043  0.78974985  0.27076246     0.44800
H322        H  0.70507972  0.82745005  0.20866596     0.38300
H323        H  0.70701010  0.73572145  0.22416437     0.34800
H324        H  0.75440265  0.77518189  0.33587461     0.26600
H325        H  0.77006287  0.71218666  0.22748241     0.32500
H326        H  0.72633465  0.74113976  0.18259844     0.38400
H327        H  0.70794943  0.83204520  0.31817939     0.32900
H328        H  0.66048532  0.85615114  0.27903212     0.31800
H329        H  0.64491183  0.82435467  0.21966186     0.33400
H330        H  0.67736005  0.79607323  0.16256171     0.32400
H331        H  0.77220897  0.81449149  0.30455959     0.36400
H332        H  0.76618124  0.84981989  0.26567356     0.29100
H333        H  0.65151400  0.71951927  0.26103559     0.33400
H334        H  0.66350882  0.75024433  0.19991156     0.36200
H335        H  0.66808713  0.83753062  0.29736971     0.28800
H336        H  0.78515346  0.83088941  0.26290934     0.41700
H337        H  0.78636676  0.72701473  0.26758114     0.31800
H338        H  0.75221687  0.75495613  0.31831853     0.39400
H339        H  0.67648920  0.81577914  0.18076934     0.31200
H340        H  0.74494005  0.71343998  0.21651510     0.31300
H341        H  0.66033677  0.72417034  0.23544888     0.31600
N342        N  0.15795428  0.22034684  0.00944529    -0.02900
C343        C  0.16071099  0.23512691  0.02749264    -0.00300
C344        C  0.16390600  0.25726566  0.01922229    -0.23200
C345        C  0.16366150  0.25625501  0.99546654    -0.23400
C346        C  0.16034769  0.23352184  0.98983329    -0.00400
H347        H  0.16871406  0.27210924  0.02934083     0.13300
H348        H  0.16836703  0.27013850  0.98362784     0.13400
Zr349      Zr  0.20957553  0.26040651  0.79033724     2.17500
O350        O  0.18442264  0.27294424  0.82181542    -0.50800
O351        O  0.20497604  0.21916082  0.79430674    -0.74000
O352        O  0.16937458  0.25527023  0.77877992    -0.80800
O353        O  0.25975739  0.26178725  0.83364296    -0.82500
O354        O  0.16599132  0.26473585  0.74033815    -0.78200
O355        O  0.22148866  0.25130486  0.82918725    -0.89800
O356        O  0.23154844  0.20285250  0.77059768    -0.75800
O357        O  0.21140120  0.24757500  0.75133677    -0.85200
O358        O  0.24798352  0.24560668  0.78655774    -0.84900
O359        O  0.20116770  0.29375922  0.76708430    -0.71700
O360        O  0.23539502  0.29149334  0.79978387    -0.83800
Zr361      Zr  0.26866702  0.29677906  0.73230859     2.26400
Zr362      Zr  0.20406691  0.28083819  0.72766778     2.06300
Zr363      Zr  0.27405564  0.27651682  0.79540400     2.10000
Zr364      Zr  0.24996905  0.23316377  0.74742181     1.78800
O365        O  0.28685563  0.30132720  0.82680888    -0.92600
O366        O  0.22902403  0.20823331  0.72058977    -0.40400
O367        O  0.27707772  0.26366502  0.75585256    -0.77100
O368        O  0.24272330  0.26582149  0.72268930    -0.95800
O369        O  0.23037610  0.31179917  0.73612475    -0.89100
O370        O  0.26653315  0.30942459  0.77147107    -0.91900
C371        C  0.21553789  0.20162290  0.78625158     1.01800
C372        C  0.24014167  0.25339272  0.84126822     1.14800
C373        C  0.15752761  0.25733821  0.75991942     1.05600
O374        O  0.19222075  0.25589577  0.69602630    -0.94100
O375        O  0.21661467  0.29836936  0.69035758    -0.89800
O376        O  0.25477644  0.30917824  0.69475790    -0.82900
C377        C  0.23575251  0.30787334  0.68302576     1.12200
O378        O  0.19848683  0.33475127  0.80349142    -0.96000
Zr379      Zr  0.22827002  0.32431162  0.77520907     1.88900
O380        O  0.27697386  0.33749451  0.73112015    -0.72700
O381        O  0.17386885  0.30886332  0.71862786    -0.51900
O382        O  0.20041982  0.35022048  0.75668852    -0.96600
O383        O  0.24408470  0.34675136  0.80722963    -0.53800
O384        O  0.25235720  0.35406062  0.75666995    -0.73200
C385        C  0.26898611  0.35504589  0.74160954     0.99100
O386        O  0.29380649  0.28456842  0.70058702    -0.62000
O387        O  0.30285700  0.24734077  0.80505225    -0.56800
O388        O  0.30899494  0.30105417  0.74343507    -0.93500
O389        O  0.31208996  0.29293765  0.78229859    -0.91900
O390        O  0.28325913  0.21040390  0.76020982    -0.92300
O391        O  0.27433937  0.22143106  0.71494403    -0.91100
C392        C  0.32053348  0.29998417  0.76253013     1.18000
H393        H  0.25073621  0.23298494  0.79725190     0.33900
H394        H  0.24492864  0.26165767  0.70659618     0.44800
H395        H  0.27802312  0.32120705  0.77468000     0.38300
H396        H  0.18546956  0.29888050  0.77021720     0.34800
H397        H  0.21305517  0.20663847  0.72714770     0.26600
H398        H  0.16561068  0.31133127  0.73353574     0.32500
H399        H  0.20686421  0.35334973  0.74094081     0.38400
H400        H  0.29641259  0.22148485  0.76142125     0.32900
H401        H  0.30960016  0.25228212  0.82009783     0.31800
H402        H  0.28700515  0.31692896  0.81983212     0.33400
H403        H  0.26085673  0.34903765  0.80346578     0.32400
H404        H  0.28056971  0.23591393  0.70815612     0.36400
H405        H  0.30401051  0.29795766  0.69701783     0.29100
H406        H  0.17174064  0.26133449  0.82309119     0.33400
H407        H  0.19780450  0.35170034  0.80290435     0.36200
H408        H  0.29351170  0.23347687  0.80904878     0.28800
H409        H  0.30439069  0.27305952  0.70766335     0.41700
H410        H  0.17789934  0.26305672  0.68959402     0.31800
H411        H  0.22689940  0.21765876  0.70627872     0.39400
H412        H  0.24408343  0.33609742  0.82080396     0.31200
H413        H  0.18255485  0.32336368  0.71570156     0.31300
H414        H  0.17688565  0.28695745  0.81559772     0.31600
Zr415      Zr  0.20194295  0.79799777  0.78449441     2.17500
O416        O  0.16612046  0.78497824  0.80372681    -0.50800
O417        O  0.20393321  0.83759598  0.79586517    -0.74000
O418        O  0.20793266  0.79887807  0.82577749    -0.80800
O419        O  0.16808133  0.81115772  0.72902393    -0.82500
O420        O  0.24539315  0.78745200  0.83247513    -0.78200
O421        O  0.16796348  0.81605392  0.76835758    -0.89800
O422        O  0.23477600  0.85415903  0.77702104    -0.75800
O423        O  0.24244435  0.80613134  0.78956890    -0.85200
O424        O  0.21395787  0.81705897  0.74958931    -0.84900
O425        O  0.21972226  0.76167116  0.79248016    -0.71700
O426        O  0.19228650  0.77188079  0.75408145    -0.83800
Zr427      Zr  0.26357132  0.76295616  0.73086164     2.26400
Zr428      Zr  0.26081198  0.77003022  0.79648730     2.06300
Zr429      Zr  0.20490389  0.79108507  0.71898033     2.10000
Zr430      Zr  0.25447252  0.82481086  0.75461552     1.78800
O431        O  0.17271594  0.77210916  0.69895692    -0.92600
O432        O  0.28526831  0.84003268  0.77955608    -0.40400
O433        O  0.24602478  0.79935140  0.72308902    -0.77100
O434        O  0.27374169  0.78895094  0.76127451    -0.95800
O435        O  0.25206510  0.74407404  0.76583808    -0.89100
O436        O  0.22308276  0.75476148  0.72593884    -0.91900
C437        C  0.21705050  0.85485127  0.79077064     1.01800
C438        C  0.15903281  0.81878739  0.74807093     1.14800
C439        C  0.22565387  0.79592724  0.83907072     1.05600
O440        O  0.29413361  0.78714731  0.81642951    -0.94100
O441        O  0.29621462  0.74748055  0.78641441    -0.89800
O442        O  0.29718870  0.74468115  0.74688180    -0.82900
C443        C  0.30539316  0.74042443  0.76716789     1.12200
O444        O  0.17617049  0.72684314  0.78283960    -0.96000
Zr445      Zr  0.21167348  0.73601917  0.76108507     1.88900
O446        O  0.26344115  0.72258346  0.72178451    -0.72700
O447        O  0.25899100  0.73888894  0.82510283    -0.51900
O448        O  0.21958504  0.70688206  0.79073977    -0.96600
O449        O  0.18305594  0.71651360  0.73660274    -0.53800
O450        O  0.23330143  0.70605544  0.74150617    -0.73200
C451        C  0.25146760  0.70499784  0.72841980     0.99100
O452        O  0.29899399  0.77444656  0.70989335    -0.62000
O453        O  0.20475478  0.82410750  0.69254021    -0.56800
O454        O  0.25685568  0.76256553  0.68990198    -0.93500
O455        O  0.22097878  0.77721884  0.68174122    -0.91900
O456        O  0.24830341  0.85638225  0.72721424    -0.92300
O457        O  0.28917900  0.83492679  0.73195629    -0.91100
C458        C  0.24033504  0.76760442  0.67576723     1.18000
H459        H  0.20585917  0.83135376  0.74724342     0.33900
H460        H  0.29049150  0.79133522  0.76174207     0.44800
H461        H  0.22044564  0.74456918  0.71305089     0.38300
H462        H  0.21365761  0.75520657  0.80690562     0.34800
H463        H  0.28703204  0.85627146  0.77459856     0.26600
H464        H  0.26267786  0.72497924  0.81618202     0.32500
H465        H  0.23645266  0.70349641  0.78903429     0.38400
H466        H  0.25865335  0.86882623  0.73286983     0.32900
H467        H  0.20527415  0.83756174  0.70286505     0.31800
H468        H  0.17005577  0.75775903  0.70799828     0.33400
H469        H  0.18425592  0.70014190  0.74117476     0.32400
H470        H  0.29104371  0.82216897  0.72096162     0.36400
H471        H  0.29411821  0.78691881  0.69912487     0.29100
H472        H  0.16292828  0.79650506  0.81580059     0.33400
H473        H  0.16482928  0.73870773  0.77792296     0.36200
H474        H  0.22034013  0.82404774  0.68500609     0.28800
H475        H  0.30893409  0.78217743  0.72161055     0.41700
H476        H  0.29675521  0.80199197  0.80827363     0.31800
H477        H  0.27809938  0.84072942  0.79523106     0.39400
H478        H  0.18957426  0.71729585  0.72063200     0.31200
H479        H  0.27290330  0.74133821  0.83511029     0.31300
H480        H  0.17064803  0.77099626  0.81253455     0.31600
Zr481      Zr  0.76695599  0.27121900  0.77848594     2.17500
O482        O  0.79489763  0.28987174  0.80420629    -0.50800
O483        O  0.77469211  0.23128519  0.78619638    -0.74000
O484        O  0.75419782  0.26374166  0.81764237    -0.80800
O485        O  0.81095404  0.26998037  0.72968379    -0.82500
O486        O  0.71448206  0.26659062  0.81865516    -0.78200
O487        O  0.80703391  0.26438989  0.76888359    -0.89800
O488        O  0.75390782  0.21124453  0.75950237    -0.75800
O489        O  0.72975062  0.25307868  0.77492314    -0.85200
O490        O  0.76654874  0.25496936  0.74067028    -0.84900
O491        O  0.73886679  0.30064414  0.78528475    -0.71700
O492        O  0.77453179  0.30280100  0.75249769    -0.83800
Zr493      Zr  0.70819407  0.29836251  0.71590601     2.26400
Zr494      Zr  0.70138668  0.28242014  0.78030664     2.06300
Zr495      Zr  0.77359933  0.28630014  0.71434589     2.10000
Zr496      Zr  0.72931514  0.23741092  0.73702891     1.78800
O497        O  0.80267360  0.31595724  0.70585321    -0.92600
O498        O  0.70236076  0.21104546  0.75678285    -0.40400
O499        O  0.73583004  0.26841609  0.70970881    -0.77100
O500        O  0.70036952  0.26658478  0.74184567    -0.95800
O501        O  0.70807073  0.31382785  0.75394559    -0.89100
O502        O  0.74557569  0.31593182  0.72020993    -0.91900
C503        C  0.76849485  0.21253964  0.77654524     1.01800
C504        C  0.81881154  0.26370353  0.74998326     1.14800
C505        C  0.73452477  0.26199459  0.82816501     1.05600
O506        O  0.67163339  0.25417611  0.79131442    -0.94100
O507        O  0.66372354  0.29699619  0.76452322    -0.89800
O508        O  0.66800789  0.30404898  0.72564013    -0.82900
C509        C  0.65585276  0.30351469  0.74433330     1.12200
O510        O  0.77041165  0.34482882  0.78961337    -0.96000
Zr511      Zr  0.74526481  0.33157678  0.75808281     1.88900
O512        O  0.69931578  0.33861086  0.70915135    -0.72700
O513        O  0.68772340  0.30955242  0.80905927    -0.51900
O514        O  0.72465393  0.35660161  0.78464450    -0.96600
O515        O  0.77392635  0.35824958  0.74135835    -0.53800
O516        O  0.72191170  0.35799551  0.73478235    -0.73200
C517        C  0.70670045  0.35730016  0.71825985     0.99100
O518        O  0.68448862  0.27932197  0.68651647    -0.62000
O519        O  0.78753350  0.26240451  0.68280161    -0.56800
O520        O  0.72176805  0.30882209  0.67774960    -0.93500
O521        O  0.76068690  0.30071165  0.67550286    -0.91900
O522        O  0.74781273  0.21473265  0.70691644    -0.92300
O523        O  0.70229272  0.21992093  0.70944257    -0.91100
C524        C  0.74124141  0.30823925  0.66684050     1.18000
H525        H  0.77826387  0.24331889  0.73892302     0.33900
H526        H  0.68489305  0.26028636  0.73878234     0.44800
H527        H  0.74791567  0.32822716  0.70902888     0.38300
H528        H  0.74035332  0.30624387  0.80102604     0.34800
H529        H  0.70869035  0.20927653  0.77277808     0.26600
H530        H  0.68042155  0.32203163  0.79980269     0.32500
H531        H  0.70810209  0.35150478  0.78389406     0.38400
H532        H  0.76397314  0.21207214  0.71253538     0.32900
H533        H  0.80187757  0.25494741  0.68876657     0.31800
H534        H  0.80940930  0.31156426  0.69067524     0.33400
H535        H  0.76860433  0.36119901  0.72517319     0.32400
H536        H  0.68685991  0.22672212  0.71278721     0.36400
H537        H  0.69587585  0.27150240  0.67640726     0.29100
H538        H  0.79866100  0.27825121  0.81633836     0.33400
H539        H  0.77271757  0.36146196  0.78675086     0.36200
H540        H  0.77585511  0.24982453  0.68183967     0.28800
H541        H  0.67659032  0.26664067  0.69511233     0.41700
H542        H  0.66703008  0.25831498  0.80734319     0.31800
H543        H  0.68782669  0.21992062  0.75880120     0.39400
H544        H  0.78832079  0.34909581  0.73965439     0.31200
H545        H  0.67438089  0.30166249  0.81680836     0.31300
H546        H  0.78566940  0.30163307  0.81228662     0.31600
Zr547      Zr  0.74333068  0.82040459  0.78392971     2.17500
O548        O  0.72786798  0.84802379  0.81130955    -0.50800
O549        O  0.78462362  0.82673098  0.79147871    -0.74000
O550        O  0.74997108  0.80555489  0.82257318    -0.80800
O551        O  0.74377873  0.86483762  0.73469612    -0.82500
O552        O  0.74545786  0.76678250  0.82310313    -0.78200
O553        O  0.75293578  0.85920766  0.77301617    -0.89800
O554        O  0.80431503  0.80717130  0.76389669    -0.75800
O555        O  0.76065626  0.78389694  0.77931735    -0.85200
O556        O  0.75903235  0.82080368  0.74559098    -0.84900
O557        O  0.71226185  0.79315799  0.79060369    -0.71700
O558        O  0.71063378  0.82845759  0.75894188    -0.83800
Zr559      Zr  0.71386182  0.76487072  0.72104362     2.26400
Zr560      Zr  0.72979124  0.75630814  0.78467487     2.06300
Zr561      Zr  0.72671109  0.82858121  0.72020946     2.10000
Zr562      Zr  0.77641369  0.78460284  0.74105350     1.78800
O563        O  0.69997242  0.86002487  0.71233885    -0.92600
O564        O  0.80429685  0.75729423  0.75721755    -0.40400
O565        O  0.74477621  0.79205527  0.71427722    -0.77100
O566        O  0.74612767  0.75628243  0.74622543    -0.95800
O567        O  0.69773552  0.76371331  0.75910009    -0.89100
O568        O  0.69601317  0.80107716  0.72634903    -0.91900
C569        C  0.80358333  0.82073745  0.78140109     1.01800
C570        C  0.75254276  0.87140881  0.75431408     1.14800
C571        C  0.75084258  0.78593980  0.83280230     1.05600
O572        O  0.75990436  0.72760690  0.79094335    -0.94100
O573        O  0.71175773  0.72042714  0.76998336    -0.89800
O574        O  0.70621606  0.72569296  0.73103729    -0.82900
C575        C  0.70487933  0.71357099  0.74971768     1.12200
O576        O  0.66514220  0.82573201  0.79354727    -0.96000
Zr577      Zr  0.68029723  0.79993461  0.76428787     1.88900
O578        O  0.67294583  0.75617746  0.71518693    -0.72700
O579        O  0.70440090  0.74191869  0.81571929    -0.51900
O580        O  0.65721908  0.77888886  0.79322515    -0.96600
O581        O  0.65296557  0.82831284  0.74900717    -0.53800
O582        O  0.65273483  0.77687202  0.74133261    -0.73200
C583        C  0.65377109  0.76230807  0.72467034     0.99100
O584        O  0.73113870  0.74031575  0.69178358    -0.62000
O585        O  0.75312657  0.83964907  0.68863727    -0.56800
O586        O  0.70254127  0.77931593  0.68355703    -0.93500
O587        O  0.70695970  0.81819568  0.68328143    -0.91900
O588        O  0.80001104  0.80389946  0.71123666    -0.92300
O589        O  0.78970702  0.75710251  0.71249587    -0.91100
C590        C  0.69994756  0.79915001  0.67424023     1.18000
H591        H  0.77125809  0.83213280  0.74353888     0.33900
H592        H  0.75217467  0.74132354  0.74285742     0.44800
H593        H  0.68296984  0.80358311  0.71590694     0.38300
H594        H  0.70665948  0.79420225  0.80647635     0.34800
H595        H  0.81964208  0.76223611  0.75079452     0.26600
H596        H  0.68902516  0.73947786  0.80811116     0.32500
H597        H  0.64081923  0.78326473  0.78992387     0.38400
H598        H  0.80406594  0.81902735  0.71779859     0.32900
H599        H  0.74389242  0.85018296  0.67863794     0.31800
H600        H  0.70576555  0.86711103  0.69764446     0.33400
H601        H  0.64072123  0.81949669  0.74071668     0.32400
H602        H  0.78108587  0.76110909  0.69804718     0.36400
H603        H  0.74074197  0.75078116  0.68192456     0.29100
H604        H  0.74156644  0.85285012  0.82070286     0.33400
H605        H  0.67915725  0.83380429  0.79957731     0.36200
H606        H  0.76509276  0.84959285  0.69597329     0.28800
H607        H  0.74273180  0.73094886  0.70042131     0.41700
H608        H  0.75497509  0.71929072  0.80528826     0.31800
H609        H  0.80525632  0.76090810  0.77400733     0.39400
H610        H  0.66169515  0.83650147  0.73649807     0.31200
H611        H  0.71016460  0.72629275  0.81921979     0.31300
H612        H  0.71802658  0.83891493  0.82225246     0.31600
N613        N  0.48026087  0.68320866  0.71172714    -0.02900
C614        C  0.50118003  0.68876973  0.72170242    -0.00300
C615        C  0.49792943  0.69708197  0.74387229    -0.23200
C616        C  0.47435533  0.69703214  0.74777322    -0.23400
C617        C  0.46383989  0.68860575  0.72793994    -0.00400
H618        H  0.51125201  0.70383648  0.75539526     0.13300
H619        H  0.46563686  0.70359892  0.76300437     0.13400
N620        N  0.32335546  0.53314610  0.70650724    -0.02900
C621        C  0.31993290  0.51474497  0.72070199    -0.00300
C622        C  0.31386792  0.52146615  0.74282629    -0.23200
C623        C  0.31375856  0.54495996  0.74235834    -0.23400
C624        C  0.31977223  0.55170956  0.71993631    -0.00400
H625        H  0.30893383  0.51044639  0.75735702     0.13300
H626        H  0.30847241  0.55592659  0.75644178     0.13400
N627        N  0.48659197  0.38684592  0.71280142    -0.02900
C628        C  0.50645726  0.39170273  0.72495953    -0.00300
C629        C  0.50087153  0.39761961  0.74752755    -0.23200
C630        C  0.47717587  0.39466243  0.74987128    -0.23400
C631        C  0.46884576  0.38717797  0.72863925    -0.00400
H632        H  0.51303799  0.39967813  0.76185094     0.13300
H633        H  0.46776124  0.39426329  0.76623898     0.13400
N634        N  0.65651414  0.53784821  0.69615246    -0.02900
C635        C  0.66582478  0.51773538  0.70378816    -0.00300
C636        C  0.67793031  0.52075144  0.72435684    -0.23200
C637        C  0.67599316  0.54341744  0.72982495    -0.23400
C638        C  0.66276998  0.55359625  0.71241856    -0.00400
H639        H  0.68723262  0.50779389  0.73426431     0.13300
H640        H  0.68375792  0.55175990  0.74473405     0.13400
N641        N  0.48552066  0.38721665  0.29120275    -0.02900
C642        C  0.50359411  0.38727529  0.27567888    -0.00300
C643        C  0.49583177  0.39189117  0.25336741    -0.23200
C644        C  0.47212103  0.39412531  0.25473935    -0.23400
C645        C  0.46603178  0.39073935  0.27784158    -0.00400
H646        H  0.50594742  0.39092356  0.23747048     0.13300
H647        H  0.46025699  0.39485695  0.24001745     0.13400
N648        N  0.68080471  0.53235530  0.33972355    -0.02900
C649        C  0.69422902  0.51324655  0.34063098    -0.00300
C650        C  0.71766978  0.51900316  0.34188700    -0.23200
C651        C  0.71885910  0.54244727  0.34140678    -0.23400
C652        C  0.69613060  0.55030848  0.33986202    -0.00400
H653        H  0.73235993  0.50746968  0.34085495     0.13300
H654        H  0.73468935  0.55262574  0.33950954     0.13400
N655        N  0.46815082  0.75226447  0.36906753    -0.02900
C656        C  0.48825242  0.76482352  0.36670499    -0.00300
C657        C  0.48406582  0.78772602  0.37042529    -0.23200
C658        C  0.46072232  0.78966218  0.37484838    -0.23400
C659        C  0.45115127  0.76784178  0.37378033    -0.00400
H660        H  0.49614453  0.80183855  0.36736268     0.13300
H661        H  0.45132207  0.80565856  0.37567792     0.13400
N662        N  0.27467297  0.53257836  0.34840726    -0.02900
C663        C  0.26230323  0.51290210  0.35231802    -0.00300
C664        C  0.23876056  0.51752362  0.35469448    -0.23200
C665        C  0.23633636  0.54070150  0.35190178    -0.23400
C666        C  0.25846806  0.54953408  0.34788286    -0.00400
H667        H  0.22460283  0.50508789  0.35542312     0.13300
H668        H  0.21995209  0.54976758  0.35021952     0.13400
N669        N  0.64624913  0.73230921  0.50669643    -0.02900
C670        C  0.65564743  0.73820014  0.48563238    -0.00300
C671        C  0.66515164  0.76000313  0.48612249    -0.23200
C672        C  0.66141184  0.76809200  0.50803269    -0.23400
C673        C  0.64971438  0.75100176  0.52028585    -0.00400
H674        H  0.67361134  0.76914924  0.47187529     0.13300
H675        H  0.66722198  0.78447744  0.51463002     0.13400
N676        N  0.67225077  0.35820344  0.49530111    -0.02900
C677        C  0.67403862  0.34509303  0.47591281    -0.00300
C678        C  0.67327525  0.32204833  0.48141296    -0.23200
C679        C  0.67189149  0.32048766  0.50507752    -0.23400
C680        C  0.67197474  0.34265031  0.51326925    -0.00400
H681        H  0.67615608  0.30798595  0.46966985     0.13300
H682        H  0.67385388  0.30492290  0.51534685     0.13400
N683        N  0.27070037  0.68119506  0.50952595    -0.02900
C684        C  0.25579587  0.68163119  0.49104596    -0.00300
C685        C  0.23326774  0.68632218  0.49816187    -0.23200
C686        C  0.23415455  0.68884318  0.52178219    -0.23400
C687        C  0.25717047  0.68555934  0.52832226    -0.00400
H688        H  0.21813394  0.68909488  0.48713546     0.13300
H689        H  0.21994089  0.69432170  0.53280007     0.13400
N690        N  0.29724824  0.34975494  0.50670736    -0.02900
C691        C  0.29363630  0.33546356  0.48849608    -0.00300
C692        C  0.28818428  0.31355148  0.49619874    -0.23200
C693        C  0.28784316  0.31413492  0.51990389    -0.23400
C694        C  0.29328074  0.33634599  0.52596096    -0.00400
H695        H  0.28231933  0.29937944  0.48562312     0.13300
H696        H  0.28224073  0.30035577  0.53147885     0.13400
O697        O  0.91523470  0.99024872  0.99826714    -0.86000
O698        O  0.04775578  0.99547118  0.00471272    -0.86100
O699        O  0.98420112  0.96723548  0.96403088    -0.87800
O700        O  0.98199030  0.96197259  0.04030142    -0.86500
O701        O  0.97787508  0.98758490  0.07009735    -0.86100
O702        O  0.98327078  0.99717432  0.93775161    -0.87500
O703        O  0.02110445  0.96602935  0.00204982    -0.86000
O704        O  0.94477522  0.96381570  0.99792272    -0.85600
Zr705      Zr  0.98222247  0.98343153  0.00318598     2.84300
O706        O  0.00388244  0.00595563  0.02912483    -1.07500
O707        O  0.95896161  0.00743851  0.97985203    -1.08300
C708        C  0.92301365  0.96956543  0.99642022     1.07200
C709        C  0.04228119  0.97405964  0.00250561     1.07100
C710        C  0.98388135  0.97561056  0.94302332     1.10100
C711        C  0.97989291  0.96699367  0.06211104     1.07900
H712        H  0.01631050  0.00067613  0.97219915     0.33400
O713        O  0.00593119  0.00914975  0.98210411    -1.28500
H714        H  0.94625488  0.99353646  0.03526406     0.33100
O715        O  0.95625334  0.00403813  0.02665063    -1.30200
O716        O  0.04640042  0.06930294  0.01127556    -0.85900
O717        O  0.91279587  0.06503123  0.00283258    -0.87400
O718        O  0.02174583  0.03369006  0.94121177    -0.86000
O719        O  0.01570508  0.02569815  0.07345505    -0.86100
O720        O  0.93924302  0.02539252  0.07015441    -0.85800
O721        O  0.94599524  0.03392247  0.93751243    -0.85600
O722        O  0.97995677  0.09822941  0.96969470    -0.86000
O723        O  0.97714058  0.09306945  0.04692544    -0.85400
O724        O  0.98294676  0.07099246  0.94147652    -0.86500
O725        O  0.97629429  0.06291218  0.07315811    -0.85600
O726        O  0.04850180  0.03444032  0.97106616    -0.86000
O727        O  0.91595329  0.02945783  0.96376790    -0.85800
O728        O  0.91250929  0.02656715  0.04027755    -0.85400
O729        O  0.04502162  0.02726283  0.04606764    -0.85800
O730        O  0.01742100  0.09633360  0.00944927    -0.86100
O731        O  0.93947288  0.09446717  0.00619664    -0.87500
Zr732      Zr  0.02735165  0.03183799  0.00784086     2.83100
Zr733      Zr  0.93323535  0.02823126  0.00298527     2.83500
Zr734      Zr  0.98282808  0.03301090  0.95890011     2.84100
Zr735      Zr  0.97817856  0.02654414  0.05255518     2.83400
Zr736      Zr  0.97887054  0.07705031  0.00756106     2.84200
O737        O  0.95530708  0.05069264  0.02867590    -1.08000
O738        O  0.00457038  0.05603153  0.98424504    -1.07500
C739        C  0.03919484  0.09024870  0.01090450     1.07100
C740        C  0.91826528  0.08658387  0.00387667     1.09700
C741        C  0.04289390  0.03408689  0.94925327     1.07300
C742        C  0.03747152  0.02568207  0.06719656     1.07700
C743        C  0.91807751  0.02583748  0.06216069     1.07200
C744        C  0.92409846  0.03204997  0.94284026     1.06800
C745        C  0.98135334  0.09196572  0.94808113     1.07200
C746        C  0.97640101  0.08456067  0.06790377     1.06700
H747        H  0.94763711  0.06360768  0.97214027     0.33400
O748        O  0.95720489  0.05396297  0.98201904    -1.29100
H749        H  0.01101116  0.06166548  0.04200484     0.33400
O750        O  0.00183677  0.05263116  0.03130971    -1.30500
O751        O  0.47766111  0.59550848  0.54577788    -0.86000
O752        O  0.48576704  0.46504982  0.53736739    -0.86100
O753        O  0.44502936  0.52762531  0.56891902    -0.87800
O754        O  0.52084735  0.53318448  0.56865469    -0.86500
O755        O  0.54916786  0.53550921  0.54030127    -0.86100
O756        O  0.41574921  0.52883418  0.54148936    -0.87500
O757        O  0.48574685  0.49185993  0.56632665    -0.86000
O758        O  0.47950829  0.56519981  0.57153107    -0.85600
Zr759      Zr  0.48276929  0.53000221  0.54935696     2.84300
O760        O  0.50738837  0.50985584  0.52436001    -1.07500
O761        O  0.45703082  0.55294725  0.52796288    -1.08300
C762        C  0.47795531  0.58683128  0.56670029     1.07200
C763        C  0.48640636  0.47101959  0.55912318     1.07100
C764        C  0.42327390  0.52805263  0.56276158     1.10100
C765        C  0.54235962  0.53485264  0.56182723     1.07900
H766        H  0.45099759  0.49600570  0.53438630     0.33400
O767        O  0.46006331  0.50667264  0.52497088    -1.28500
H768        H  0.51364385  0.56600848  0.53769633     0.33100
O769        O  0.50447573  0.55653223  0.52740325    -1.30200
O770        O  0.48568789  0.47136741  0.45955149    -0.85900
O771        O  0.47528166  0.60146437  0.46955985    -0.87400
O772        O  0.41766146  0.49146761  0.50208985    -0.86000
O773        O  0.55117464  0.50054737  0.50017269    -0.86100
O774        O  0.54605547  0.57527747  0.50507233    -0.85800
O775        O  0.41287137  0.56578030  0.50493126    -0.85600
O776        O  0.44249919  0.53601229  0.43665714    -0.86000
O777        O  0.51872940  0.54017441  0.43587067    -0.85400
O778        O  0.41498819  0.52975710  0.46525553    -0.86500
O779        O  0.54749568  0.54065995  0.46390012    -0.85600
O780        O  0.44723825  0.46533904  0.49857146    -0.86000
O781        O  0.43902974  0.59556984  0.50925939    -0.85800
O782        O  0.51574090  0.60086990  0.50668922    -0.85400
O783        O  0.52454904  0.47082471  0.49943181    -0.85800
O784        O  0.48230475  0.50172062  0.43383617    -0.86100
O785        O  0.47861029  0.57668561  0.43894552    -0.87500
Zr786      Zr  0.48470339  0.48657204  0.49967655     2.83100
Zr787      Zr  0.47859980  0.57975617  0.50614058     2.83500
Zr788      Zr  0.43463516  0.52997888  0.50316766     2.84100
Zr789      Zr  0.52922164  0.53656465  0.50228908     2.83400
Zr790      Zr  0.48098179  0.53744186  0.45565974     2.84200
O791        O  0.50359827  0.56015652  0.48074334    -1.08000
O792        O  0.45953241  0.51045969  0.47792847    -1.07500
C793        C  0.48414555  0.48007503  0.43863583     1.07100
C794        C  0.47600415  0.59696439  0.44756180     1.09700
C795        C  0.42532584  0.47079108  0.50008591     1.07300
C796        C  0.54575760  0.47894297  0.49974515     1.07700
C797        C  0.53775625  0.59581617  0.50633229     1.07200
C798        C  0.41803413  0.58719536  0.50768482     1.06800
C799        C  0.42125124  0.53249725  0.44373373     1.07200
C800        C  0.54034324  0.54117414  0.44248908     1.06700
H801        H  0.44550447  0.56630870  0.47210143     0.33400
O802        O  0.45613007  0.55685045  0.48104515    -1.29100
H803        H  0.51645101  0.50566131  0.46713122     0.33400
O804        O  0.50626966  0.51373234  0.47755292    -1.30500
C805        C  0.35614363  0.37845928  0.51185664    -0.01500
C806        C  0.35225107  0.40011747  0.50140628     0.07100
C807        C  0.32980041  0.40497730  0.49257536    -0.07400
C808        C  0.31138019  0.38885586  0.49436934     0.04600
C809        C  0.31503716  0.36759754  0.50576403    -0.14700
C810        C  0.33761134  0.36266183  0.51421889    -0.08000
C811        C  0.37097478  0.41826502  0.50069901     0.05500
C812        C  0.39128754  0.41527241  0.48724371    -0.09100
C813        C  0.40924066  0.43200280  0.48668061     0.00500
C814        C  0.40722060  0.45210833  0.50006736     0.00400
C815        C  0.38678769  0.45501876  0.51335002    -0.12700
C816        C  0.36882540  0.43849709  0.51368101     0.00800
C817        C  0.42880701  0.42875797  0.47118594     0.40100
C818        C  0.34842289  0.44258015  0.52781279     0.36700
C819        C  0.37902558  0.37196713  0.52022120     0.36500
C820        C  0.28899823  0.39459207  0.48437215     0.37200
N821        N  0.44440638  0.42633633  0.45862184    -0.43600
N822        N  0.33201921  0.44590387  0.53904934    -0.44000
N823        N  0.27122140  0.39948696  0.47607039    -0.41400
N824        N  0.39740309  0.36659416  0.52669250    -0.42800
H825        H  0.34087876  0.34605055  0.52220436     0.13400
H826        H  0.32668695  0.42145043  0.48421629     0.09900
H827        H  0.39295593  0.39996216  0.47689063     0.10900
H828        H  0.38483369  0.47030313  0.52369814     0.16700
C829        C  0.33530163  0.66892717  0.51292546    -0.01500
C830        C  0.33546275  0.64477010  0.51091737     0.07100
C831        C  0.31391361  0.63300629  0.51003005    -0.07400
C832        C  0.29268510  0.64484218  0.50982991     0.04600
C833        C  0.29257004  0.66897441  0.51048858    -0.14700
C834        C  0.31392146  0.68077451  0.51280888    -0.08000
C835        C  0.35761329  0.63126186  0.50935169     0.05500
C836        C  0.37439062  0.63230246  0.52731728    -0.09100
C837        C  0.39463657  0.61872289  0.52681900     0.00500
C838        C  0.39806023  0.60328864  0.50837950     0.00400
C839        C  0.38143592  0.60239471  0.49039578    -0.12700
C840        C  0.36162895  0.61639183  0.49052232     0.00800
C841        C  0.41091555  0.61999921  0.54604803     0.40100
C842        C  0.34595089  0.61554512  0.47077774     0.36700
C843        C  0.35678283  0.68198557  0.51461288     0.36500
C844        C  0.27106417  0.63188624  0.50955493     0.37200
N845        N  0.42388113  0.62106413  0.56152451    -0.43600
N846        N  0.33344626  0.61493546  0.45490725    -0.44000
N847        N  0.25370187  0.62152384  0.50952893    -0.41400
N848        N  0.37399190  0.69247020  0.51612553    -0.42800
H849        H  0.31390593  0.69922807  0.51436960     0.13400
H850        H  0.31368838  0.61443926  0.50938032     0.09900
H851        H  0.37142804  0.64338039  0.54202707     0.10900
H852        H  0.38406381  0.59080147  0.47601791     0.16700
C853        C  0.61594911  0.39035157  0.48787560    -0.01500
C854        C  0.62145007  0.41209456  0.49693555     0.07100
C855        C  0.64451466  0.41624731  0.50473803    -0.07400
C856        C  0.66173111  0.39900890  0.50389104     0.04600
C857        C  0.65591927  0.37712658  0.49533002    -0.14700
C858        C  0.63292096  0.37321521  0.48739494    -0.08000
C859        C  0.60304983  0.43023756  0.49856831     0.05500
C860        C  0.58325830  0.42605646  0.51255940    -0.09100
C861        C  0.56456661  0.44154613  0.51312697     0.00500
C862        C  0.56545434  0.46211230  0.49975617     0.00400
C863        C  0.58559181  0.46658617  0.48619829    -0.12700
C864        C  0.60411437  0.45078400  0.48531475     0.00800
C865        C  0.54491046  0.43603735  0.52803431     0.40100
C866        C  0.62350650  0.45538112  0.46978965     0.36700
C867        C  0.59305471  0.38529262  0.47846156     0.36500
C868        C  0.68520517  0.40428864  0.51145902     0.37200
N869        N  0.52918957  0.43149460  0.53997878    -0.43600
N870        N  0.63908060  0.45880219  0.45730236    -0.44000
N871        N  0.70401051  0.40888675  0.51742478    -0.41400
N872        N  0.57474524  0.38123475  0.47082651    -0.42800
H873        H  0.62816154  0.35645357  0.48089805     0.13400
H874        H  0.64902742  0.43292948  0.51160967     0.09900
H875        H  0.58226966  0.41036566  0.52287552     0.10900
H876        H  0.58656606  0.48215524  0.47570054     0.16700
C877        C  0.59453222  0.69477583  0.52149968    -0.01500
C878        C  0.60278502  0.67281080  0.51551496     0.07100
C879        C  0.62653651  0.67056933  0.50959528    -0.07400
C880        C  0.64148164  0.68979648  0.50833913     0.04600
C881        C  0.63260168  0.71192532  0.51210110    -0.14700
C882        C  0.60932340  0.71405792  0.51948404    -0.08000
C883        C  0.58651583  0.65259147  0.51349818     0.05500
C884        C  0.56690123  0.65450870  0.49878219    -0.09100
C885        C  0.55114461  0.63620259  0.49592312     0.00500
C886        C  0.55477488  0.61521260  0.50789556     0.00400
C887        C  0.57471156  0.61299218  0.52213047    -0.12700
C888        C  0.59049106  0.63138004  0.52503594     0.00800
C889        C  0.53194963  0.63911285  0.47976659     0.40100
C890        C  0.61026175  0.62811884  0.54038294     0.36700
C891        C  0.57099242  0.69792553  0.52994795     0.36500
C892        C  0.66602885  0.68638234  0.50388575     0.37200
N893        N  0.51662115  0.64137824  0.46675194    -0.43600
N894        N  0.62612751  0.62528939  0.55262492    -0.44000
N895        N  0.68577494  0.68348134  0.50067838    -0.41400
N896        N  0.55217968  0.70040187  0.53688942    -0.42800
H897        H  0.60249169  0.73094573  0.52294052     0.13400
H898        H  0.63333658  0.65384104  0.50538351     0.09900
H899        H  0.56402739  0.67038284  0.48919339     0.10900
H900        H  0.57771622  0.59697953  0.53143587     0.16700
C901        C  0.32224514  0.54622581  0.39105201    -0.01500
C902        C  0.34170896  0.53531297  0.38121027     0.07100
C903        C  0.33943154  0.52533771  0.35916024    -0.07400
C904        C  0.31780988  0.52546121  0.34731521     0.04600
C905        C  0.29808427  0.53568188  0.35757276    -0.14700
C906        C  0.30080053  0.54647375  0.37920024    -0.08000
C907        C  0.36398142  0.53327003  0.39458998     0.05500
C908        C  0.36667476  0.51466970  0.41005878    -0.09100
C909        C  0.38565594  0.51374304  0.42558107     0.00500
C910        C  0.40237426  0.53173317  0.42588882     0.00400
C911        C  0.40029997  0.54978578  0.40956248    -0.12700
C912        C  0.38118488  0.55074610  0.39411059     0.00800
C913        C  0.38788011  0.49388557  0.44065835     0.40100
C914        C  0.37899133  0.57021572  0.37851868     0.36700
C915        C  0.32364700  0.55619889  0.41392187     0.36500
C916        C  0.31626251  0.51497359  0.32476589     0.37200
N917        N  0.38970405  0.47782716  0.45253862    -0.43600
N918        N  0.37709283  0.58579921  0.36599550    -0.44000
N919        N  0.31525200  0.50654309  0.30664483    -0.41400
N920        N  0.32493915  0.56396093  0.43233833    -0.42800
H921        H  0.28571362  0.55407568  0.38742781     0.13400
H922        H  0.35440652  0.51703512  0.35145037     0.09900
H923        H  0.35354023  0.50113564  0.41042680     0.10900
H924        H  0.41309502  0.56362219  0.40952563     0.16700
C925        C  0.45031818  0.65124460  0.42143968    -0.01500
C926        C  0.46819254  0.65918443  0.40629768     0.07100
C927        C  0.48782310  0.64513540  0.40294956    -0.07400
C928        C  0.49023688  0.62412625  0.41522014     0.04600
C929        C  0.47290998  0.61695102  0.43136656    -0.14700
C930        C  0.45288834  0.63051635  0.43388974    -0.08000
C931        C  0.46774823  0.68299912  0.39594395     0.05500
C932        C  0.47099500  0.70169204  0.41079104    -0.09100
C933        C  0.47077648  0.72434157  0.40217414     0.00500
C934        C  0.46775583  0.72887693  0.37806752     0.00400
C935        C  0.46435829  0.71023442  0.36314218    -0.12700
C936        C  0.46394543  0.68747675  0.37194334     0.00800
C937        C  0.47344905  0.74277140  0.41850650     0.40100
C938        C  0.45832077  0.66907343  0.35633021     0.36700
C939        C  0.42914419  0.66414859  0.42459421     0.36500
C940        C  0.51131784  0.61101610  0.41219150     0.37200
N941        N  0.47540813  0.75748455  0.43171239    -0.43600
N942        N  0.45340826  0.65432688  0.34390934    -0.44000
N943        N  0.52821871  0.60048642  0.40985635    -0.41400
N944        N  0.41203326  0.67430041  0.42709122    -0.42800
H945        H  0.43932401  0.62506431  0.44602222     0.13400
H946        H  0.50172612  0.65102798  0.39144169     0.09900
H947        H  0.47360429  0.69855250  0.42928915     0.10900
H948        H  0.46170462  0.71347823  0.34469510     0.16700
C949        C  0.63567520  0.52604528  0.38656183    -0.01500
C950        C  0.61612684  0.53686890  0.37646931     0.07100
C951        C  0.61758534  0.54522507  0.35340376    -0.07400
C952        C  0.63855507  0.54342383  0.34066869     0.04600
C953        C  0.65829533  0.53314682  0.35109874    -0.14700
C954        C  0.65643192  0.52432747  0.37394450    -0.08000
C955        C  0.59471215  0.54031327  0.39062403     0.05500
C956        C  0.59569059  0.55629780  0.40866024    -0.09100
C957        C  0.57794396  0.55724236  0.42542506     0.00500
C958        C  0.55845112  0.54227924  0.42401926     0.00400
C959        C  0.55689741  0.52707149  0.40524416    -0.12700
C960        C  0.57499947  0.52575124  0.38879659     0.00800
C961        C  0.58027115  0.57360492  0.44396778     0.40100
C962        C  0.57377629  0.50830192  0.37122475     0.36700
C963        C  0.63483190  0.51682163  0.41005030     0.36500
C964        C  0.63938960  0.55194359  0.31699188     0.37200
N965        N  0.58221451  0.58670088  0.45883195    -0.43600
N966        N  0.57287904  0.49420043  0.35725162    -0.44000
N967        N  0.63991914  0.55875340  0.29796052    -0.41400
N968        N  0.63392200  0.50955493  0.42889614    -0.42800
H969        H  0.67154437  0.51648701  0.38214516     0.13400
H970        H  0.60250768  0.55343966  0.34553101     0.09900
H971        H  0.61094426  0.56737616  0.41022196     0.10900
H972        H  0.54210414  0.51535462  0.40412360     0.16700
C973        C  0.50103697  0.43041624  0.33708308    -0.01500
C974        C  0.48976982  0.42139328  0.35706476     0.07100
C975        C  0.47845196  0.39996331  0.35556136    -0.07400
C976        C  0.47752854  0.38799143  0.33434239     0.04600
C977        C  0.48809601  0.39742283  0.31408164    -0.14700
C978        C  0.50014865  0.41851395  0.31598970    -0.08000
C979        C  0.48790289  0.43519047  0.37882161     0.05500
C980        C  0.47151630  0.45292083  0.37940249    -0.09100
C981        C  0.46988769  0.46742407  0.39866209     0.00500
C982        C  0.48464388  0.46418655  0.41830990     0.00400
C983        C  0.50084884  0.44611938  0.41785876    -0.12700
C984        C  0.50278362  0.43191322  0.39823797     0.00800
C985        C  0.45266327  0.48536819  0.39772175     0.40100
C986        C  0.52082176  0.41476312  0.39793536     0.36700
C987        C  0.51321786  0.45218007  0.33775889     0.36500
C988        C  0.46566013  0.36613679  0.33393630     0.37200
N989        N  0.43885886  0.49973737  0.39663039    -0.43600
N990        N  0.53541559  0.40113476  0.39759615    -0.44000
N991        N  0.45608744  0.34858188  0.33413502    -0.41400
N992        N  0.52295870  0.46962642  0.33841862    -0.42800
H993        H  0.50829293  0.42611761  0.30064980     0.13400
H994        H  0.46979461  0.39285017  0.37086476     0.09900
H995        H  0.46012996  0.45566382  0.36448918     0.10900
H996        H  0.51260387  0.44360045  0.43251171     0.17100
C997        C  0.57626247  0.55763395  0.61360709    -0.01500
C998        C  0.59345663  0.54063484  0.61727685     0.07100
C999        C  0.59403785  0.52197000  0.60196380    -0.07400
C1000       C  0.57803620  0.52010181  0.58342466     0.04600
C1001       C  0.56047993  0.53671328  0.58031218    -0.14700
C1002       C  0.55980474  0.55535118  0.59553115    -0.08000
C1003       C  0.61033911  0.54153483  0.63738144     0.05500
C1004       C  0.60167005  0.54349727  0.66023484    -0.09100
C1005       C  0.61678411  0.54330920  0.67957402     0.00500
C1006       C  0.64104613  0.54071008  0.67641707     0.00400
C1007       C  0.64982730  0.53883912  0.65370580    -0.12700
C1008       C  0.63482315  0.53955959  0.63426537     0.00800
C1009       C  0.60700128  0.54473155  0.70265910     0.40100
C1010       C  0.64500811  0.53867346  0.61128233     0.36700
C1011       C  0.57558434  0.57793750  0.62769795     0.36500
C1012       C  0.57944711  0.50057150  0.56831971     0.37200
N1013       N  0.59921395  0.54587062  0.72121346    -0.43600
N1014       N  0.65306930  0.53800027  0.59281019    -0.44000
N1015       N  0.58061411  0.48492733  0.55620209    -0.41400
N1016       N  0.57515080  0.59421990  0.63898168    -0.42800
H1017       H  0.54653653  0.56836184  0.59306760     0.13400
H1018       H  0.60686463  0.50860299  0.60467936     0.09900
H1019       H  0.58295263  0.54466632  0.66304226     0.10900
H1020       H  0.66847102  0.53678174  0.65119696     0.16700
C1021       C  0.49675282  0.39303462  0.64798832    -0.01500
C1022       C  0.48584820  0.41412551  0.64283022     0.07100
C1023       C  0.47402679  0.42532786  0.66074435    -0.07400
C1024       C  0.47334035  0.41622432  0.68351898     0.04600
C1025       C  0.48416635  0.39495968  0.68884487    -0.14700
C1026       C  0.49575899  0.38360975  0.67076143    -0.08000
C1027       C  0.48842774  0.42619446  0.61971978     0.05500
C1028       C  0.47409232  0.42023933  0.60068789    -0.09100
C1029       C  0.47417342  0.43351241  0.57986747     0.00500
C1030       C  0.48854505  0.45333023  0.57807914     0.00400
C1031       C  0.50373141  0.45832877  0.59667986    -0.12700
C1032       C  0.50389141  0.44501285  0.61715957     0.00800
C1033       C  0.45852020  0.42717179  0.56121677     0.40100
C1034       C  0.51993248  0.45129578  0.63550609     0.36700
C1035       C  0.51014255  0.38146860  0.63047498     0.36500
C1036       C  0.46297196  0.43005938  0.70138030     0.37200
N1037       N  0.44604279  0.42196954  0.54623985    -0.43600
N1038       N  0.53296978  0.45641313  0.65002720    -0.44000
N1039       N  0.45472527  0.44127636  0.71563689    -0.41400
N1040       N  0.52098323  0.37231481  0.61640357    -0.42800
H1041       H  0.50473688  0.36773397  0.67463186     0.13400
H1042       H  0.46610152  0.44182646  0.65709716     0.09900
H1043       H  0.46225542  0.40569616  0.60239698     0.10900
H1044       H  0.51518709  0.47322535  0.59545699     0.16700
C1045       C  0.33744607  0.52701190  0.64305084    -0.01500
C1046       C  0.36207629  0.52981961  0.64321544     0.07100
C1047       C  0.37340733  0.53434679  0.66442496    -0.07400
C1048       C  0.36076505  0.53550791  0.68521377     0.04600
C1049       C  0.33624164  0.53290494  0.68500515    -0.14700
C1050       C  0.32474070  0.52866122  0.66390336    -0.08000
C1051       C  0.37653335  0.52792845  0.62170136     0.05500
C1052       C  0.37226725  0.54265475  0.60262905    -0.09100
C1053       C  0.38648698  0.54228347  0.58270478     0.00500
C1054       C  0.40593181  0.52746572  0.58197666     0.00400
C1055       C  0.40991535  0.51250623  0.60090554    -0.12700
C1056       C  0.39525431  0.51233462  0.62042493     0.00800
C1057       C  0.38100666  0.55775705  0.56369700     0.40100
C1058       C  0.39950598  0.49562862  0.63870565     0.36700
C1059       C  0.32495000  0.52160718  0.62192109     0.36500
C1060       C  0.37332421  0.53835277  0.70683494     0.37200
N1061       N  0.37605904  0.57008518  0.54855928    -0.43600
N1062       N  0.40285638  0.48216423  0.65329495    -0.44000
N1063       N  0.38335148  0.54037303  0.72423719    -0.41400
N1064       N  0.31492445  0.51728188  0.60497717    -0.42800
H1065       H  0.30591184  0.52632777  0.66381575     0.13400
H1066       H  0.39227346  0.53661246  0.66479029     0.09900
H1067       H  0.35799557  0.55475969  0.60346844     0.10900
H1068       H  0.42453795  0.50077312  0.60038756     0.16700
C1069       C  0.46242104  0.66529522  0.65118673    -0.01500
C1070       C  0.47362204  0.64386529  0.64938912     0.07100
C1071       C  0.48597463  0.63532534  0.66874195    -0.07400
C1072       C  0.48772361  0.64784681  0.68935360     0.04600
C1073       C  0.47711266  0.66955260  0.69103041    -0.14700
C1074       C  0.46403394  0.67783478  0.67199084    -0.08000
C1075       C  0.47301011  0.63000244  0.62759711     0.05500
C1076       C  0.48436162  0.63828213  0.60741459    -0.09100
C1077       C  0.48597427  0.62483636  0.58727884     0.00500
C1078       C  0.47602590  0.60251775  0.58703830     0.00400
C1079       C  0.46434899  0.59448637  0.60719879    -0.12700
C1080       C  0.46276833  0.60791449  0.62724120     0.00800
C1081       C  0.49905845  0.63394588  0.56768397     0.40100
C1082       C  0.45039157  0.59868751  0.64724387     0.36700
C1083       C  0.44893557  0.67451813  0.63201586     0.36500
C1084       C  0.50009171  0.63778365  0.70884193     0.37200
N1085       N  0.50963273  0.64133369  0.55207129    -0.43600
N1086       N  0.44048379  0.59130333  0.66328281    -0.44000
N1087       N  0.50999647  0.62965622  0.72445569    -0.41400
N1088       N  0.43812152  0.68181176  0.61658504    -0.42800
H1089       H  0.45552669  0.69429691  0.67322165     0.13400
H1090       H  0.49445958  0.61881237  0.66766815     0.09900
H1091       H  0.49261264  0.65508277  0.60763735     0.10900
H1092       H  0.45635946  0.57755586  0.60734159     0.16700
C1093       C  0.66958763  0.75237277  0.58163698    -0.01500
C1094       C  0.65708254  0.77142414  0.58978901     0.07100
C1095       C  0.63796524  0.77954827  0.57684696    -0.07400
C1096       C  0.63277355  0.77038712  0.55491080     0.04600
C1097       C  0.64671932  0.75275413  0.54577725    -0.14700
C1098       C  0.66421749  0.74308009  0.55984898    -0.08000
C1099       C  0.66497789  0.78369754  0.61098587     0.05500
C1100       C  0.68615337  0.79622434  0.61014333    -0.09100
C1101       C  0.69698352  0.80382814  0.63065985     0.00500
C1102       C  0.68646405  0.79900065  0.65231553     0.00400
C1103       C  0.66429055  0.78829064  0.65292746    -0.12700
C1104       C  0.65349158  0.78065346  0.63250652     0.00800
C1105       C  0.71987311  0.81440195  0.62935894     0.40100
C1106       C  0.63163112  0.76814297  0.63431010     0.36700
C1107       C  0.68903614  0.74312768  0.59472353     0.36500
C1108       C  0.61419253  0.78044034  0.54120840     0.37200
N1109       N  0.73827451  0.82281664  0.62853292    -0.43600
N1110       N  0.61410885  0.75814205  0.63588810    -0.44000
N1111       N  0.59926266  0.78840024  0.53019840    -0.41400
N1112       N  0.70465810  0.73594539  0.60531597    -0.42800
H1113       H  0.67530728  0.72985568  0.55281109     0.13400
H1114       H  0.62800727  0.79389995  0.58323558     0.09900
H1115       H  0.69497895  0.79870795  0.59356629     0.10900
H1116       H  0.65618698  0.78436786  0.66963177     0.16700
C1117       C  0.66680034  0.66808730  0.72226285    -0.01500
C1118       C  0.67465508  0.64777923  0.73296801     0.07100
C1119       C  0.69092884  0.64920579  0.75140141    -0.07400
C1120       C  0.70031626  0.67047518  0.75833461     0.04600
C1121       C  0.69349817  0.69072022  0.74654715    -0.14700
C1122       C  0.67609703  0.68915533  0.72914564    -0.08000
C1123       C  0.66678085  0.62487549  0.72468657     0.05500
C1124       C  0.67591950  0.61633350  0.70382324    -0.09100
C1125       C  0.67207497  0.59340312  0.69751349     0.00500
C1126       C  0.65878078  0.57870183  0.71217892     0.00400
C1127       C  0.64782968  0.58798931  0.73183318    -0.12700
C1128       C  0.65167307  0.61086254  0.73811134     0.00800
C1129       C  0.68393848  0.58480534  0.67727854     0.40100
C1130       C  0.64078284  0.61940027  0.75892152     0.36700
C1131       C  0.64923477  0.66777473  0.70414469     0.36500
C1132       C  0.71748969  0.67090510  0.77678271     0.37200
N1133       N  0.69353361  0.57803419  0.66104105    -0.43600
N1134       N  0.63205023  0.62642369  0.77552399    -0.44000
N1135       N  0.73117619  0.67122782  0.79167086    -0.41400
N1136       N  0.63510794  0.66765862  0.68966943    -0.42800
H1137       H  0.66997981  0.70457670  0.72047940     0.13400
H1138       H  0.69677947  0.63358515  0.75994850     0.09900
H1139       H  0.68727611  0.62718867  0.69321494     0.10900
H1140       H  0.63776582  0.57681486  0.74336351     0.16700
C1141       C  0.58990924  0.74369621  0.72399872    -0.01500
C1142       C  0.58966189  0.72644718  0.70705562     0.07100
C1143       C  0.60977369  0.72268406  0.69387145    -0.07400
C1144       C  0.63054677  0.73492324  0.69825138     0.04600
C1145       C  0.63146760  0.75121039  0.71656052    -0.14700
C1146       C  0.61058903  0.75586787  0.72858352    -0.08000
C1147       C  0.56901697  0.71106629  0.70465462     0.05500
C1148       C  0.55055670  0.71761020  0.68995762    -0.09100
C1149       C  0.52823299  0.70766482  0.69259486     0.00500
C1150       C  0.52434455  0.69088993  0.71018539     0.00400
C1151       C  0.54367997  0.68226451  0.72258039    -0.12700
C1152       C  0.56586985  0.69234202  0.72011204     0.00800
C1153       C  0.50915769  0.71726337  0.67929362     0.40100
C1154       C  0.58450231  0.68497378  0.73546720     0.36700
C1155       C  0.56926016  0.74856526  0.73752549     0.36500
C1156       C  0.65049948  0.72978379  0.68385298     0.37200
N1157       N  0.49406174  0.72520460  0.66850778    -0.43600
N1158       N  0.59944181  0.67922843  0.74782073    -0.44000
N1159       N  0.66638979  0.72539495  0.67228530    -0.41400
N1160       N  0.55265961  0.75238724  0.74829512    -0.42800
H1161       H  0.61048515  0.76849378  0.74227229     0.13400
H1162       H  0.60940660  0.70966529  0.68055749     0.09900
H1163       H  0.55303709  0.73192784  0.67794259     0.10900
H1164       H  0.54087701  0.66947601  0.73621124     0.16700
C1165       C  0.72846067  0.30939498  0.60277023    -0.01500
C1166       C  0.72062722  0.33214300  0.59976330     0.07100
C1167       C  0.72453499  0.34787781  0.61763052    -0.07400
C1168       C  0.73440615  0.34076116  0.63892583     0.04600
C1169       C  0.74009093  0.31747859  0.64275994    -0.14700
C1170       C  0.73782216  0.30214933  0.62427428    -0.08000
C1171       C  0.70709942  0.33925321  0.57867464     0.05500
C1172       C  0.68317646  0.33361291  0.57741362    -0.09100
C1173       C  0.67050015  0.33708192  0.55669925     0.00500
C1174       C  0.68163508  0.34672265  0.53688771     0.00400
C1175       C  0.70517274  0.35373012  0.53867858    -0.12700
C1176       C  0.71797534  0.34986965  0.55927367     0.00800
C1177       C  0.64653378  0.32908360  0.55547124     0.40100
C1178       C  0.74272930  0.35498261  0.55944751     0.36700
C1179       C  0.72649156  0.29309795  0.58416426     0.36500
C1180       C  0.73797037  0.35745191  0.65698354     0.37200
N1181       N  0.62736708  0.32263022  0.55417955    -0.43600
N1182       N  0.76263362  0.35883886  0.55956173    -0.44000
N1183       N  0.74121321  0.37081545  0.67138126    -0.41400
N1184       N  0.72515179  0.28013177  0.56912781    -0.42800
H1185       H  0.74195665  0.28421955  0.62708613     0.13400
H1186       H  0.71912911  0.36552342  0.61523445     0.09900
H1187       H  0.67471441  0.32539094  0.59226772     0.10900
H1188       H  0.71418223  0.36022450  0.52329633     0.16700
C1189       C  0.60239604  0.33986292  0.75527653    -0.01500
C1190       C  0.59036177  0.33838096  0.73377149     0.07100
C1191       C  0.59866218  0.32331809  0.71693976    -0.07400
C1192       C  0.61887831  0.31042690  0.72080388     0.04600
C1193       C  0.63164405  0.31260512  0.74192528    -0.14700
C1194       C  0.62277819  0.32699124  0.75920342    -0.08000
C1195       C  0.56919666  0.35239395  0.72834672     0.05500
C1196       C  0.57069156  0.37645421  0.72894920    -0.09100
C1197       C  0.55072756  0.39001451  0.72558830     0.00500
C1198       C  0.52885855  0.37955289  0.72108717     0.00400
C1199       C  0.52783821  0.35568150  0.71847427    -0.12700
C1200       C  0.54757496  0.34207369  0.72239343     0.00800
C1201       C  0.55297287  0.41459087  0.72714384     0.40100
C1202       C  0.54472563  0.31747572  0.72183877     0.36700
C1203       C  0.59426025  0.35460507  0.77351259     0.36500
C1204       C  0.62612039  0.29531733  0.70247594     0.37200
N1205       N  0.55487148  0.43430564  0.72822211    -0.43600
N1206       N  0.54242623  0.29776519  0.72142081    -0.44000
N1207       N  0.63159408  0.28337236  0.68753429    -0.41400
N1208       N  0.58772871  0.36648535  0.78808153    -0.42800
H1209       H  0.63239508  0.32907555  0.77535987     0.13400
H1210       H  0.58952563  0.32196349  0.70041626     0.09900
H1211       H  0.58738422  0.38462564  0.73265188     0.10900
H1212       H  0.51114465  0.34743152  0.71503047     0.16700
C1213       C  0.70204126  0.42160970  0.70934882    -0.01500
C1214       C  0.68178563  0.42409977  0.69545594     0.07100
C1215       C  0.66983619  0.40428349  0.68820646    -0.07400
C1216       C  0.67754999  0.38227523  0.69493700     0.04600
C1217       C  0.69768429  0.37983565  0.70932626    -0.14700
C1218       C  0.70977505  0.39983798  0.71593566    -0.08000
C1219       C  0.67252312  0.44745059  0.69000203     0.05500
C1220       C  0.68702276  0.46328135  0.67812123    -0.09100
C1221       C  0.68307765  0.48690025  0.67960391     0.00500
C1222       C  0.66412431  0.49498213  0.69278330     0.00400
C1223       C  0.64789956  0.47909765  0.70200176    -0.12700
C1224       C  0.65185054  0.45542274  0.70055563     0.00800
C1225       C  0.70020614  0.50259002  0.66980989     0.40100
C1226       C  0.63564251  0.43979797  0.71191828     0.36700
C1227       C  0.71475822  0.44122098  0.71807963     0.36500
C1228       C  0.66404362  0.36275754  0.68724804     0.37200
N1229       N  0.71389135  0.51524595  0.66201244    -0.43600
N1230       N  0.62258734  0.42719360  0.72081763    -0.44000
N1231       N  0.65318616  0.34716240  0.68100560    -0.41400
N1232       N  0.72497059  0.45688760  0.72510998    -0.42800
H1233       H  0.72536698  0.39863079  0.72667250     0.13400
H1234       H  0.65423553  0.40603974  0.67755803     0.09900
H1235       H  0.70274063  0.45729218  0.66962756     0.10900
H1236       H  0.63336997  0.48519134  0.71230967     0.16700
C1237       C  0.27430049  0.74552314  0.62496776    -0.01500
C1238       C  0.25673905  0.73523898  0.61137056     0.07100
C1239       C  0.23311818  0.73821121  0.61746773    -0.07400
C1240       C  0.22688609  0.75033345  0.63746911     0.04600
C1241       C  0.24455026  0.76020589  0.65146010    -0.14700
C1242       C  0.26808630  0.75840791  0.64429016    -0.08000
C1243       C  0.26249847  0.72050789  0.59130094     0.05500
C1244       C  0.25481397  0.69759626  0.59170143    -0.09100
C1245       C  0.25609938  0.68425503  0.57168176     0.00500
C1246       C  0.26552626  0.69374750  0.55100838     0.00400
C1247       C  0.27559320  0.71573305  0.55135310    -0.12700
C1248       C  0.27378808  0.72933573  0.57117135     0.00800
C1249       C  0.24564219  0.66164082  0.57198146     0.40100
C1250       C  0.28132474  0.75298198  0.56951873     0.36700
C1251       C  0.29882146  0.74136589  0.62074714     0.36500
C1252       C  0.20253446  0.75062703  0.64412603     0.37200
N1253       N  0.23718576  0.64355200  0.57207290    -0.43600
N1254       N  0.28735244  0.77193421  0.56817359    -0.44000
N1255       N  0.18297351  0.75066644  0.64935660    -0.41400
N1256       N  0.31844067  0.73784157  0.61744843    -0.42800
H1257       H  0.28195161  0.76570419  0.65487774     0.13400
H1258       H  0.21953783  0.73023016  0.60703651     0.09900
H1259       H  0.24648569  0.69060185  0.60724906     0.10900
H1260       H  0.28228576  0.72330682  0.53529639     0.16700
C1261       C  0.40155100  0.67720132  0.74350239    -0.01500
C1262       C  0.39230340  0.69954768  0.74123744     0.07100
C1263       C  0.40540821  0.71626943  0.72906516    -0.07400
C1264       C  0.42801941  0.71167164  0.72099413     0.04600
C1265       C  0.43812621  0.68999982  0.72517794    -0.14700
C1266       C  0.42435073  0.67268485  0.73561203    -0.08000
C1267       C  0.36957686  0.70648392  0.75196981     0.05500
C1268       C  0.36950995  0.72425903  0.76839384    -0.09100
C1269       C  0.34845096  0.73421636  0.77580338     0.00500
C1270       C  0.32691778  0.72624999  0.76690233     0.00400
C1271       C  0.32697706  0.70728113  0.75191139    -0.12700
C1272       C  0.34794842  0.69762221  0.74421409     0.00800
C1273       C  0.34950533  0.75401788  0.79057094     0.40100
C1274       C  0.34690569  0.68019197  0.72662413     0.36700
C1275       C  0.38871213  0.65902452  0.75518570     0.36500
C1276       C  0.44144963  0.73020372  0.71055634     0.37200
N1277       N  0.35027824  0.76997317  0.80231837    -0.43600
N1278       N  0.34646852  0.66622794  0.71250456    -0.44000
N1279       N  0.45216228  0.74511890  0.70226566    -0.41400
N1280       N  0.37836782  0.64429781  0.76425989    -0.42800
H1281       H  0.43214659  0.65616997  0.73943731     0.13400
H1282       H  0.39831286  0.73333535  0.72674872     0.09900
H1283       H  0.38605755  0.73124134  0.77443978     0.10900
H1284       H  0.31054755  0.70117323  0.74465196     0.16700
C1285       C  0.28731723  0.66036819  0.69716497    -0.01500
C1286       C  0.28318274  0.64069557  0.71095963     0.07100
C1287       C  0.26649512  0.64135264  0.72877376    -0.07400
C1288       C  0.25467856  0.66160639  0.73380868     0.04600
C1289       C  0.26009244  0.68207122  0.72121270    -0.14700
C1290       C  0.27601920  0.68087768  0.70248051    -0.08000
C1291       C  0.29659555  0.61933268  0.70803041     0.05500
C1292       C  0.31613814  0.61560087  0.72233400    -0.09100
C1293       C  0.32629861  0.59391722  0.72393666     0.00500
C1294       C  0.31648778  0.57548996  0.71150240     0.00400
C1295       C  0.29843210  0.57978638  0.69542196    -0.12700
C1296       C  0.28841589  0.60161212  0.69364437     0.00800
C1297       C  0.34599534  0.59060028  0.73939058     0.40100
C1298       C  0.26865764  0.60513772  0.67834632     0.36700
C1299       C  0.30330256  0.65990421  0.67772886     0.36500
C1300       C  0.23766364  0.66066448  0.75239870     0.37200
N1301       N  0.36188083  0.58795372  0.75164698    -0.43600
N1302       N  0.25282304  0.60825153  0.66613974    -0.44000
N1303       N  0.22389346  0.65953751  0.76715958    -0.41400
N1304       N  0.31608078  0.65944047  0.66211094    -0.42800
H1305       H  0.28003404  0.69610888  0.69216669     0.13400
H1306       H  0.26299154  0.62597658  0.73907826     0.09900
H1307       H  0.32258867  0.62928629  0.73327985     0.10900
H1308       H  0.29070167  0.56568145  0.68589904     0.16700
C1309       C  0.24379482  0.31153353  0.61815051    -0.01500
C1310       C  0.25486284  0.33321271  0.61592930     0.07100
C1311       C  0.25461578  0.34811678  0.63484062    -0.07400
C1312       C  0.24548315  0.34083999  0.65638681     0.04600
C1313       C  0.23705968  0.31815802  0.65939150    -0.14700
C1314       C  0.23527880  0.30400538  0.63991392    -0.08000
C1315       C  0.26833913  0.33957209  0.59461472     0.05500
C1316       C  0.25840226  0.35412589  0.57773769    -0.09100
C1317       C  0.26848012  0.35639084  0.55546827     0.00500
C1318       C  0.28895090  0.34406664  0.55004972     0.00400
C1319       C  0.30027556  0.33181034  0.56793092    -0.12700
C1320       C  0.29008535  0.32930839  0.58999080     0.00800
C1321       C  0.25597308  0.36928025  0.53787290     0.40100
C1322       C  0.30132550  0.31460516  0.60699460     0.36700
C1323       C  0.24154209  0.29661965  0.59838290     0.36500
C1324       C  0.24509625  0.35675799  0.67542135     0.37200
N1325       N  0.24565288  0.37969253  0.52403268    -0.43600
N1326       N  0.31033404  0.30272747  0.62053424    -0.44000
N1327       N  0.24423603  0.36949328  0.69066936    -0.41400
N1328       N  0.23952163  0.28488441  0.58239145    -0.42800
H1329       H  0.22861767  0.28664174  0.64198583     0.13400
H1330       H  0.26235037  0.36507853  0.63302626     0.09900
H1331       H  0.24185087  0.36231573  0.58136944     0.10900
H1332       H  0.31585313  0.32212004  0.56389454     0.16700
C1333       C  0.30371395  0.40118345  0.70893430    -0.01500
C1334       C  0.29998643  0.42048291  0.72271416     0.07100
C1335       C  0.28675871  0.41835570  0.74313712    -0.07400
C1336       C  0.27676023  0.39736386  0.74987978     0.04600
C1337       C  0.27982229  0.37779336  0.73580920    -0.14700
C1338       C  0.29376401  0.38004217  0.71554737    -0.08000
C1339       C  0.30845719  0.44357120  0.71585166     0.05500
C1340       C  0.29244539  0.45861200  0.70544177    -0.09100
C1341       C  0.29720116  0.48211905  0.70422511     0.00500
C1342       C  0.31836106  0.49071634  0.71345259     0.00400
C1343       C  0.33530065  0.47542456  0.72181367    -0.12700
C1344       C  0.33049783  0.45187554  0.72307724     0.00800
C1345       C  0.27901848  0.49724481  0.69595116     0.40100
C1346       C  0.34757674  0.43687974  0.73362918     0.36700
C1347       C  0.31736299  0.40292854  0.68782387     0.36500
C1348       C  0.26387188  0.39673284  0.77151892     0.37200
N1349       N  0.26435457  0.50928304  0.68937465    -0.43600
N1350       N  0.36136330  0.42497379  0.74211372    -0.44000
N1351       N  0.25363107  0.39661240  0.78891324    -0.41400
N1352       N  0.32841293  0.40458287  0.67098422    -0.42800
H1353       H  0.29656085  0.36538693  0.70450546     0.13400
H1354       H  0.28407594  0.43333879  0.75378935     0.09900
H1355       H  0.27546345  0.45218384  0.69994290     0.10900
H1356       H  0.35146446  0.48207273  0.72913999     0.16700
C1357       C  0.37045152  0.34240936  0.76256488    -0.01500
C1358       C  0.38615145  0.33244272  0.74665151     0.07100
C1359       C  0.38166299  0.31005342  0.73906899    -0.07400
C1360       C  0.36109792  0.29833083  0.74571161     0.04600
C1361       C  0.34491653  0.30867193  0.76083337    -0.14700
C1362       C  0.35008518  0.33050303  0.76953037    -0.08000
C1363       C  0.40749740  0.34499681  0.73815803     0.05500
C1364       C  0.42957159  0.33667496  0.74443013    -0.09100
C1365       C  0.44993174  0.34942086  0.73960513     0.00500
C1366       C  0.44848849  0.37110075  0.72827867     0.00400
C1367       C  0.42655675  0.37867860  0.72045963    -0.12700
C1368       C  0.40617927  0.36561007  0.72496677     0.00800
C1369       C  0.47195844  0.34041476  0.74785944     0.40100
C1370       C  0.38407508  0.37352874  0.71587594     0.36700
C1371       C  0.37472685  0.36501218  0.77166195     0.36500
C1372       C  0.35633369  0.27609305  0.73594782     0.37200
N1373       N  0.48940417  0.33297804  0.75475321    -0.43600
N1374       N  0.36629125  0.37959754  0.70847346    -0.44000
N1375       N  0.35236951  0.25831654  0.72808634    -0.41400
N1376       N  0.37824712  0.38316767  0.77881150    -0.42800
H1377       H  0.33750874  0.33884091  0.78067296     0.13400
H1378       H  0.39378817  0.30208328  0.72718264     0.09900
H1379       H  0.43081857  0.32062867  0.75409912     0.10900
H1380       H  0.42520898  0.39513659  0.71160121     0.16700
C1381       C  0.13321476  0.16053570  0.00272986    -0.01500
C1382       C  0.10943099  0.16367734  0.00879474     0.07100
C1383       C  0.10218611  0.18563501  0.01511395    -0.07400
C1384       C  0.11790294  0.20419057  0.01531603     0.04600
C1385       C  0.14188702  0.20098261  0.01019812    -0.14700
C1386       C  0.14922102  0.17908640  0.00359819    -0.08000
C1387       C  0.09170592  0.14451993  0.00872074     0.05500
C1388       C  0.09486006  0.12536599  0.02349336    -0.09100
C1389       C  0.07797640  0.10767099  0.02488927     0.00500
C1390       C  0.05734645  0.10884342  0.01118427     0.00400
C1391       C  0.05422593  0.12804182  0.99654872    -0.12700
C1392       C  0.07100554  0.14570994  0.99520155     0.00800
C1393       C  0.08181785  0.08917405  0.04138815     0.40100
C1394       C  0.06667871  0.16463579  0.97936306     0.36700
C1395       C  0.14130049  0.13868750  0.99460529     0.36500
C1396       C  0.10859307  0.22670296  0.01927386     0.37200
N1397       N  0.08507395  0.07455413  0.05480494    -0.43600
N1398       N  0.06297794  0.17975027  0.96666347    -0.44000
N1399       N  0.10090291  0.24473993  0.02205404    -0.41400
N1400       N  0.14764242  0.12115270  0.98798895    -0.42800
H1401       H  0.16733990  0.17660183  0.99874439     0.13400
H1402       H  0.08397637  0.18840137  0.01953372     0.09900
H1403       H  0.11037161  0.12447855  0.03438280     0.10900
H1404       H  0.03876322  0.12900547  0.98566490     0.16700
C1405       C  0.20485958  0.21515259  0.94678937    -0.01500
C1406       C  0.19716240  0.22714032  0.92671984     0.07100
C1407       C  0.17425097  0.23565717  0.92616649    -0.07400
C1408       C  0.16022471  0.23506355  0.94616245     0.04600
C1409       C  0.16889915  0.22534013  0.96706342    -0.14700
C1410       C  0.19059285  0.21415050  0.96671609    -0.08000
C1411       C  0.21321805  0.23335565  0.90713129     0.05500
C1412       C  0.22052750  0.21645898  0.89167735    -0.09100
C1413       C  0.23219193  0.22253283  0.87094498     0.00500
C1414       C  0.23738736  0.24578796  0.86575022     0.00400
C1415       C  0.23173355  0.26244636  0.88213784    -0.12700
C1416       C  0.21946776  0.25648418  0.90253018     0.00800
C1417       C  0.23690936  0.20483560  0.85429446     0.40100
C1418       C  0.21190582  0.27459787  0.91762501     0.36700
C1419       C  0.22813203  0.20579780  0.94817597     0.36500
C1420       C  0.13793885  0.24654664  0.94547716     0.37200
N1421       N  0.24065191  0.19061817  0.84097767    -0.43600
N1422       N  0.20553440  0.28906512  0.92961019    -0.44000
N1423       N  0.12015506  0.25589276  0.94487349    -0.41400
N1424       N  0.24678632  0.19829225  0.94945430    -0.42800
H1425       H  0.19757152  0.20691823  0.98276981     0.13400
H1426       H  0.16800743  0.24439114  0.91057608     0.09900
H1427       H  0.21571039  0.19870315  0.89502293     0.10900
H1428       H  0.23484054  0.28039613  0.87793773     0.16700
C1429       C  0.66927950  0.75352638  0.38660309    -0.01500
C1430       C  0.66379531  0.73022208  0.39066946     0.07100
C1431       C  0.66486680  0.71482171  0.37213783    -0.07400
C1432       C  0.67197452  0.72236052  0.34981603     0.04600
C1433       C  0.67867246  0.74556442  0.34611379    -0.14700
C1434       C  0.67674156  0.76093283  0.36460030    -0.08000
C1435       C  0.65945773  0.72204316  0.41489858     0.05500
C1436       C  0.63729911  0.72539154  0.42479615    -0.09100
C1437       C  0.63474554  0.72699585  0.44906665     0.00500
C1438       C  0.65461042  0.72534792  0.46359656     0.00400
C1439       C  0.67609102  0.71906964  0.45379013    -0.12700
C1440       C  0.67863033  0.71731076  0.42962706     0.00800
C1441       C  0.61231208  0.73338680  0.45838954     0.40100
C1442       C  0.70171500  0.71366080  0.42017736     0.36700
C1443       C  0.66821920  0.77003227  0.40511762     0.36500
C1444       C  0.67315106  0.70580080  0.33139040     0.37200
N1445       N  0.59434019  0.73852116  0.46590226    -0.43600
N1446       N  0.72018575  0.71080995  0.41252818    -0.44000
N1447       N  0.67392129  0.69254880  0.31659166    -0.41400
N1448       N  0.66734470  0.78313548  0.42004542    -0.42800
H1449       H  0.68130900  0.77885685  0.36191880     0.13400
H1450       H  0.66072725  0.69687607  0.37525376     0.09900
H1451       H  0.62253210  0.72915918  0.41351869     0.10900
H1452       H  0.69152899  0.71815936  0.46478685     0.16700
C1453       C  0.57867214  0.75556445  0.29255240    -0.01500
C1454       C  0.56836819  0.77154191  0.30748282     0.07100
C1455       C  0.57837727  0.79361980  0.30884286    -0.07400
C1456       C  0.59884089  0.79960253  0.29635973     0.04600
C1457       C  0.60984408  0.78325817  0.28216143    -0.14700
C1458       C  0.59890808  0.76154621  0.27997689    -0.08000
C1459       C  0.54790785  0.76529695  0.32266056     0.05500
C1460       C  0.55087120  0.76498152  0.34698219    -0.09100
C1461       C  0.53168934  0.76171018  0.36198497     0.00500
C1462       C  0.50901701  0.75847666  0.35279011     0.00400
C1463       C  0.50629035  0.75707572  0.32849498    -0.12700
C1464       C  0.52543454  0.76058772  0.31342809     0.00800
C1465       C  0.53530369  0.76326930  0.38682214     0.40100
C1466       C  0.52124891  0.76104490  0.28860368     0.36700
C1467       C  0.56964929  0.73243811  0.29093539     0.36500
C1468       C  0.60878385  0.82213175  0.29956890     0.37200
N1469       N  0.53804822  0.76452209  0.40675370    -0.43600
N1470       N  0.51793036  0.76136159  0.26869739    -0.44000
N1471       N  0.61665911  0.84025065  0.30217038    -0.41400
N1472       N  0.56238468  0.71392222  0.28967996    -0.42800
H1473       H  0.60682801  0.74864423  0.26914817     0.13400
H1474       H  0.57047507  0.80607327  0.32021062     0.09900
H1475       H  0.56809516  0.76821396  0.35426973     0.10900
H1476       H  0.48882916  0.75536254  0.32121567     0.16700
C1477       C  0.72191723  0.65253246  0.30369706    -0.01500
C1478       C  0.70273100  0.63909511  0.29610328     0.07100
C1479       C  0.68942318  0.64682883  0.27705466    -0.07400
C1480       C  0.69462624  0.66772279  0.26591761     0.04600
C1481       C  0.71323037  0.68161830  0.27408837    -0.14700
C1482       C  0.72701293  0.67360688  0.29267682    -0.08000
C1483       C  0.69724527  0.61624090  0.30673956     0.05500
C1484       C  0.69079412  0.61443670  0.33037119    -0.09100
C1485       C  0.68816767  0.59286858  0.34133963     0.00500
C1486       C  0.69174977  0.57279585  0.32850649     0.00400
C1487       C  0.69656546  0.57466573  0.30456680    -0.12700
C1488       C  0.69942644  0.59607358  0.29366855     0.00800
C1489       C  0.68276714  0.59170887  0.36588151     0.40100
C1490       C  0.70641526  0.59687499  0.26948071     0.36700
C1491       C  0.73668538  0.64502547  0.32268955     0.36500
C1492       C  0.68084440  0.67435717  0.24583951     0.37200
N1493       N  0.67833760  0.59083172  0.38555201    -0.43600
N1494       N  0.71206141  0.59766809  0.25011992    -0.44000
N1495       N  0.66992180  0.67947367  0.22961242    -0.41400
N1496       N  0.74855248  0.63904892  0.33792126    -0.42800
H1497       H  0.74113032  0.68426137  0.29925889     0.13400
H1498       H  0.67493829  0.63643363  0.27082628     0.09900
H1499       H  0.68864988  0.62988268  0.34042438     0.10900
H1500       H  0.69966466  0.55925823  0.29468766     0.16700
C1501       C  0.72065665  0.35566589  0.36946085    -0.01500
C1502       C  0.72205490  0.34216672  0.38989630     0.07100
C1503       C  0.73355761  0.32095975  0.38917252    -0.07400
C1504       C  0.74219127  0.31247661  0.36803898     0.04600
C1505       C  0.73991719  0.32565263  0.34737646    -0.14700
C1506       C  0.72985875  0.34753506  0.34856888    -0.08000
C1507       C  0.70896884  0.34839480  0.41127437     0.05500
C1508       C  0.68459285  0.34510918  0.41165820    -0.09100
C1509       C  0.67195496  0.34736344  0.43240613     0.00500
C1510       C  0.68375545  0.35278513  0.45322706     0.00400
C1511       C  0.70771004  0.35840466  0.45230940    -0.12700
C1512       C  0.72037237  0.35621609  0.43149567     0.00800
C1513       C  0.64704567  0.34297674  0.43228126     0.40100
C1514       C  0.74516776  0.36113285  0.43144651     0.36700
C1515       C  0.70826710  0.37711584  0.36922748     0.36500
C1516       C  0.75082648  0.28930724  0.36749867     0.37200
N1517       N  0.62703392  0.33970729  0.43217628    -0.43600
N1518       N  0.76503747  0.36517056  0.43131999    -0.44000
N1519       N  0.75755105  0.27066557  0.36703430    -0.41400
N1520       N  0.69808233  0.39416548  0.36922121    -0.42800
H1521       H  0.72744102  0.35752446  0.33266470     0.13400
H1522       H  0.73428861  0.31032521  0.40480218     0.09900
H1523       H  0.67561274  0.33969623  0.39596953     0.10900
H1524       H  0.71694531  0.36249253  0.46827806     0.16700
C1525       C  0.67256448  0.46643534  0.30167719    -0.01500
C1526       C  0.68339434  0.44709213  0.31185227     0.07100
C1527       C  0.69357730  0.44900726  0.33401504    -0.07400
C1528       C  0.69489551  0.47019908  0.34512655     0.04600
C1529       C  0.68620959  0.49002166  0.33385805    -0.14700
C1530       C  0.67393515  0.48769502  0.31278081    -0.08000
C1531       C  0.68691555  0.42552051  0.29881382     0.05500
C1532       C  0.70253553  0.42574701  0.27998377    -0.09100
C1533       C  0.70944097  0.40535890  0.26936546     0.00500
C1534       C  0.70060901  0.38390792  0.27770548     0.00400
C1535       C  0.68398720  0.38406792  0.29588970    -0.12700
C1536       C  0.67719463  0.40449681  0.30639224     0.00800
C1537       C  0.72605270  0.40737515  0.25047452     0.40100
C1538       C  0.66023666  0.40343257  0.32499777     0.36700
C1539       C  0.66077452  0.46504247  0.27947712     0.36500
C1540       C  0.70566835  0.47127345  0.36786383     0.37200
N1541       N  0.73935685  0.40942746  0.23537354    -0.43600
N1542       N  0.64657453  0.40243619  0.33985708    -0.44000
N1543       N  0.71408985  0.47194982  0.38620188    -0.41400
N1544       N  0.65122881  0.46398258  0.26171506    -0.42800
H1545       H  0.66700499  0.50279895  0.30407447     0.13400
H1546       H  0.70163611  0.43414360  0.34209980     0.09900
H1547       H  0.71008169  0.44194438  0.27411572     0.10900
H1548       H  0.67651129  0.36810683  0.30242487     0.16700
C1549       C  0.56731224  0.37496530  0.26670476    -0.01500
C1550       C  0.56728336  0.35079815  0.26873414     0.07100
C1551       C  0.54750008  0.33976586  0.27829670    -0.07400
C1552       C  0.52731797  0.35202481  0.28377949     0.04600
C1553       C  0.52641811  0.37582493  0.27921298    -0.14700
C1554       C  0.54680622  0.38717164  0.27141914    -0.08000
C1555       C  0.58785921  0.33662187  0.26212301     0.05500
C1556       C  0.59708747  0.32164008  0.27892110    -0.09100
C1557       C  0.61707299  0.30881830  0.27445149     0.00500
C1558       C  0.62870655  0.31093964  0.25267776     0.00400
C1559       C  0.61845837  0.32462208  0.23515402    -0.12700
C1560       C  0.59808958  0.33727491  0.23963120     0.00800
C1561       C  0.62520375  0.29391056  0.29297247     0.40100
C1562       C  0.58809261  0.35077703  0.22090960     0.36700
C1563       C  0.58812010  0.38759268  0.25994692     0.36500
C1564       C  0.50727711  0.33928649  0.29228715     0.37200
N1565       N  0.63088598  0.28216779  0.30833082    -0.43600
N1566       N  0.58013736  0.36166716  0.20591594    -0.44000
N1567       N  0.49160147  0.32853326  0.29919852    -0.41400
N1568       N  0.60484513  0.39766275  0.25457428    -0.42800
H1569       H  0.54635239  0.40548623  0.26799458     0.13400
H1570       H  0.54751104  0.32129914  0.28072255     0.09900
H1571       H  0.58897363  0.32041839  0.29599201     0.10900
H1572       H  0.62699625  0.32637648  0.21834506     0.16700
C1573       C  0.26862617  0.70462095  0.37674365    -0.01500
C1574       C  0.25259268  0.70337192  0.39528664     0.07100
C1575       C  0.23102103  0.71447138  0.39312981    -0.07400
C1576       C  0.22551561  0.72742302  0.37318537     0.04600
C1577       C  0.24195385  0.72954686  0.35476398    -0.14700
C1578       C  0.26319398  0.71746391  0.35668738    -0.08000
C1579       C  0.25872678  0.69299536  0.41819333     0.05500
C1580       C  0.27437346  0.70498289  0.43251452    -0.09100
C1581       C  0.27588372  0.69991964  0.45640273     0.00500
C1582       C  0.26211855  0.68195494  0.46606616     0.00400
C1583       C  0.24840661  0.66844166  0.45116320    -0.12700
C1584       C  0.24630510  0.67402379  0.42746755     0.00800
C1585       C  0.28893034  0.71559759  0.47080701     0.40100
C1586       C  0.22991111  0.66116340  0.41352274     0.36700
C1587       C  0.29077934  0.69295470  0.37801473     0.36500
C1588       C  0.20278166  0.73803734  0.37232916     0.37200
N1589       N  0.29927880  0.72864459  0.48190804    -0.43600
N1590       N  0.21658788  0.65078135  0.40261345    -0.44000
N1591       N  0.18449017  0.74641644  0.37194013    -0.41400
N1592       N  0.30851867  0.68355748  0.37902755    -0.42800
H1593       H  0.27596278  0.71847149  0.34273477     0.13400
H1594       H  0.21865400  0.71352312  0.40746099     0.09900
H1595       H  0.28369769  0.71978868  0.42545931     0.10900
H1596       H  0.23751447  0.65485331  0.45851880     0.16700
C1597       C  0.22004795  0.64273451  0.30030626    -0.01500
C1598       C  0.24280546  0.63365903  0.29789401     0.07100
C1599       C  0.25859999  0.64471334  0.28280224    -0.07400
C1600       C  0.25282314  0.66545618  0.27174518     0.04600
C1601       C  0.23088202  0.67583961  0.27591604    -0.14700
C1602       C  0.21430395  0.66375141  0.28947755    -0.08000
C1603       C  0.25062456  0.61290083  0.31116908     0.05500
C1604       C  0.25691201  0.59318819  0.29901867    -0.09100
C1605       C  0.26241666  0.57281766  0.31099615     0.00500
C1606       C  0.26130586  0.57185616  0.33559864     0.00400
C1607       C  0.25674404  0.59201473  0.34777694    -0.12700
C1608       C  0.25199123  0.61257289  0.33575887     0.00800
C1609       C  0.26758960  0.55276544  0.29753930     0.40100
C1610       C  0.24877859  0.63322796  0.34886775     0.36700
C1611       C  0.20243804  0.63083160  0.31397550     0.36500
C1612       C  0.26991279  0.67583717  0.25628176     0.37200
N1613       N  0.27183856  0.53689882  0.28648196    -0.43600
N1614       N  0.24649885  0.65002519  0.35906530    -0.44000
N1615       N  0.28362383  0.68398903  0.24379599    -0.41400
N1616       N  0.18836504  0.62116710  0.32487318    -0.42800
H1617       H  0.19733785  0.67128387  0.29268240     0.13400
H1618       H  0.27581322  0.63746107  0.28020628     0.09900
H1619       H  0.25666456  0.59348175  0.28011324     0.10900
H1620       H  0.25599628  0.59147332  0.36666602     0.16700
C1621       C  0.35999222  0.79233480  0.31293066    -0.01500
C1622       C  0.36008890  0.78105506  0.33495145     0.07100
C1623       C  0.33868064  0.77614280  0.34590315    -0.07400
C1624       C  0.31747468  0.78058729  0.33456432     0.04600
C1625       C  0.31741916  0.78987978  0.31172496    -0.14700
C1626       C  0.33870156  0.79643438  0.30140241    -0.08000
C1627       C  0.38216938  0.77408351  0.34686201     0.05500
C1628       C  0.38729714  0.78278524  0.36897298    -0.09100
C1629       C  0.40883027  0.77830851  0.37977180     0.00500
C1630       C  0.42584276  0.76503611  0.36828601     0.00400
C1631       C  0.41966295  0.75438946  0.34732312    -0.12700
C1632       C  0.39801306  0.75872706  0.33663252     0.00800
C1633       C  0.41359641  0.78869806  0.40201480     0.40100
C1634       C  0.39270123  0.74779538  0.31480429     0.36700
C1635       C  0.38145067  0.79973487  0.30176801     0.36500
C1636       C  0.29592710  0.77586035  0.34688678     0.37200
N1637       N  0.41735434  0.79717859  0.41976799    -0.43600
N1638       N  0.38833735  0.73920597  0.29724354    -0.44000
N1639       N  0.27875180  0.77250184  0.35707529    -0.41400
N1640       N  0.39860609  0.80566964  0.29273819    -0.42800
H1641       H  0.33874771  0.80386846  0.28397226     0.13400
H1642       H  0.33854037  0.76828014  0.36314295     0.09900
H1643       H  0.37486109  0.79393693  0.37736428     0.10900
H1644       H  0.43245312  0.74422694  0.33823484     0.16700
C1645       C  0.09054127  0.00456513  0.10000768    -0.01500
C1646       C  0.09486265  0.02272361  0.11552683     0.07100
C1647       C  0.07886557  0.04089954  0.11632459    -0.07400
C1648       C  0.05912654  0.04138133  0.10179010     0.04600
C1649       C  0.05562634  0.02391285  0.08542295    -0.14700
C1650       C  0.07129202  0.00552491  0.08483626    -0.08000
C1651       C  0.11630317  0.02371746  0.13041693     0.05500
C1652       C  0.13845571  0.02409641  0.11977041    -0.09100
C1653       C  0.15886542  0.02715644  0.13303124     0.00500
C1654       C  0.15737883  0.03009351  0.15733013     0.00400
C1655       C  0.13533964  0.02959649  0.16802173    -0.12700
C1656       C  0.11491422  0.02608502  0.15485967     0.00800
C1657       C  0.18121183  0.02824548  0.12135200     0.40100
C1658       C  0.09267720  0.02487929  0.16675491     0.36700
C1659       C  0.10519797  0.98453420  0.09970293     0.36500
C1660       C  0.04319276  0.06037676  0.10337282     0.37200
N1661       N  0.19920854  0.02915055  0.11212667    -0.43600
N1662       N  0.07474546  0.02385680  0.17609083    -0.44000
N1663       N  0.03031853  0.07550183  0.10477531    -0.41400
N1664       N  0.11669431  0.96830114  0.09949935    -0.42800
H1665       H  0.06849099  0.99191172  0.07241274     0.13400
H1666       H  0.08202351  0.05497439  0.12810526     0.09900
H1667       H  0.13975717  0.02266620  0.10098757     0.10900
H1668       H  0.13405490  0.03235375  0.18657853     0.16700
C1669       C  0.21665776  0.96082677  0.17762875    -0.01500
C1670       C  0.20482750  0.95196858  0.19736039     0.07100
C1671       C  0.18712608  0.96493274  0.20760403    -0.07400
C1672       C  0.18208164  0.98707235  0.19934444     0.04600
C1673       C  0.19461090  0.99636461  0.18019505    -0.14700
C1674       C  0.21142647  0.98283599  0.16918007    -0.08000
C1675       C  0.21034479  0.92905616  0.20741378     0.05500
C1676       C  0.22506779  0.92714122  0.22701976    -0.09100
C1677       C  0.22949691  0.90565075  0.23756420     0.00500
C1678       C  0.21879091  0.88570982  0.22854730     0.00400
C1679       C  0.20456825  0.88788632  0.20851071    -0.12700
C1680       C  0.20031741  0.90917252  0.19802002     0.00800
C1681       C  0.24423388  0.90475277  0.25799442     0.40100
C1682       C  0.18509904  0.91029599  0.17791296     0.36700
C1683       C  0.23515271  0.94820378  0.16664830     0.36500
C1684       C  0.16591056  0.00072533  0.21244364     0.37200
N1685       N  0.25611990  0.90420392  0.27434401    -0.43600
N1686       N  0.17289598  0.91126936  0.16181866    -0.44000
N1687       N  0.15314390  0.01159191  0.22326953    -0.41400
N1688       N  0.25008741  0.93820415  0.15787192    -0.42800
H1689       H  0.22160719  0.99011482  0.15490354     0.13400
H1690       H  0.17788470  0.95806419  0.22268671     0.09900
H1691       H  0.23284433  0.94250329  0.23425597     0.10900
H1692       H  0.19644623  0.87280646  0.20101264     0.16700
C1693       C  0.25094069  0.29792322  0.40033312    -0.01500
C1694       C  0.24796199  0.32154147  0.40460836     0.07100
C1695       C  0.23310891  0.33434479  0.39000361    -0.07400
C1696       C  0.22277995  0.32433005  0.37038877     0.04600
C1697       C  0.22752473  0.30130925  0.36508176    -0.14700
C1698       C  0.24090409  0.28810422  0.38057096    -0.08000
C1699       C  0.26078417  0.33288726  0.42392603     0.05500
C1700       C  0.28536530  0.33152946  0.42464208    -0.09100
C1701       C  0.29761639  0.33604875  0.44526073     0.00500
C1702       C  0.28525388  0.34254453  0.46524941     0.00400
C1703       C  0.26124227  0.34723651  0.46341836    -0.12700
C1704       C  0.24887881  0.34231883  0.44299939     0.00800
C1705       C  0.32242530  0.33164013  0.44633851     0.40100
C1706       C  0.22373163  0.34457463  0.44310509     0.36700
C1707       C  0.26497473  0.28356719  0.41546071     0.36500
C1708       C  0.20902752  0.33840385  0.35474417     0.37200
N1709       N  0.34232146  0.32815238  0.44729284    -0.43600
N1710       N  0.20357573  0.34641877  0.44326264    -0.44000
N1711       N  0.19793903  0.34945862  0.34206458    -0.41400
N1712       N  0.27627515  0.27206784  0.42752120    -0.42800
H1713       H  0.24496589  0.27052780  0.37627625     0.13400
H1714       H  0.23049444  0.35239979  0.39328310     0.09900
H1715       H  0.29472892  0.32498956  0.40973373     0.10900
H1716       H  0.25161443  0.35198136  0.47889284     0.16700
C1717       C  0.36811190  0.34099413  0.24890848    -0.01500
C1718       C  0.37379145  0.35132779  0.27038607     0.07100
C1719       C  0.35696209  0.35137116  0.28798068    -0.07400
C1720       C  0.33526460  0.34039346  0.28514431     0.04600
C1721       C  0.32981057  0.32870564  0.26405796    -0.14700
C1722       C  0.34635180  0.32981521  0.24591652    -0.08000
C1723       C  0.39748034  0.36123500  0.27541329     0.05500
C1724       C  0.40011536  0.38485408  0.27950205    -0.09100
C1725       C  0.42244014  0.39466775  0.28299144     0.00500
C1726       C  0.44251016  0.38079601  0.28271477     0.00400
C1727       C  0.43963398  0.35704433  0.28009331    -0.12700
C1728       C  0.41743276  0.34719450  0.27680202     0.00800
C1729       C  0.42462579  0.41912232  0.28581923     0.40100
C1730       C  0.41555272  0.32262666  0.27463279     0.36700
C1731       C  0.38431024  0.34182050  0.22963534     0.36500
C1732       C  0.31922162  0.34183090  0.30450803     0.37200
N1733       N  0.42660567  0.43870492  0.28817951    -0.43600
N1734       N  0.41394345  0.30293626  0.27297507    -0.44000
N1735       N  0.30691009  0.34326702  0.32041626    -0.41400
N1736       N  0.39727869  0.34254736  0.21415947    -0.42800
H1737       H  0.34253832  0.32153517  0.22952340     0.13400
H1738       H  0.36104733  0.35963283  0.30434787     0.09900
H1739       H  0.38482114  0.39573400  0.27915333     0.10900
H1740       H  0.45493138  0.34630137  0.27910398     0.16700
C1741       C  0.25424437  0.40490578  0.33251001    -0.01500
C1742       C  0.26970876  0.42027350  0.32089830     0.07100
C1743       C  0.28140165  0.41287728  0.30082453    -0.07400
C1744       C  0.27670139  0.39124795  0.29145300     0.04600
C1745       C  0.26046268  0.37643708  0.30251735    -0.14700
C1746       C  0.25003148  0.38311511  0.32339117    -0.08000
C1747       C  0.27193589  0.44468876  0.32803997     0.05500
C1748       C  0.27853172  0.45005270  0.35101701    -0.09100
C1749       C  0.27696535  0.47259035  0.35917365     0.00500
C1750       C  0.26953883  0.49020559  0.34397946     0.00400
C1751       C  0.26437118  0.48508296  0.32073386    -0.12700
C1752       C  0.26530677  0.46264133  0.31270070     0.00800
C1753       C  0.28149133  0.47700490  0.38345193     0.40100
C1754       C  0.25729416  0.45834497  0.28925123     0.36700
C1755       C  0.24128130  0.41154684  0.35290424     0.36500
C1756       C  0.28853393  0.38469419  0.27037987     0.37200
N1757       N  0.28494932  0.48052603  0.40296327    -0.43600
N1758       N  0.25077897  0.45499401  0.27048315    -0.44000
N1759       N  0.29810924  0.37946172  0.25352816    -0.41400
N1760       N  0.23088749  0.41685850  0.36924278    -0.42800
H1761       H  0.23777214  0.37164857  0.33204267     0.13400
H1762       H  0.29357307  0.42438509  0.29197494     0.09900
H1763       H  0.28373375  0.43642295  0.36291272     0.10900
H1764       H  0.25795897  0.49849918  0.30921088     0.16700
C1765       C  0.20417233  0.21977114  0.07386455    -0.01500
C1766       C  0.19639493  0.23357797  0.09228317     0.07100
C1767       C  0.17396107  0.24312255  0.09090036    -0.07400
C1768       C  0.16025727  0.24090772  0.07076124     0.04600
C1769       C  0.16896433  0.22903896  0.05134959    -0.14700
C1770       C  0.19039889  0.21750548  0.05362526    -0.08000
C1771       C  0.21175086  0.24002364  0.11231472     0.05500
C1772       C  0.21866430  0.26309170  0.11453890    -0.09100
C1773       C  0.22955867  0.27094651  0.13494481     0.00500
C1774       C  0.23373419  0.25560677  0.15363735     0.00400
C1775       C  0.22845894  0.23219450  0.15064525    -0.12700
C1776       C  0.21758129  0.22432330  0.13024460     0.00800
C1777       C  0.23414741  0.29517035  0.13719046     0.40100
C1778       C  0.21087154  0.20046424  0.12890924     0.36700
C1779       C  0.22702024  0.20943014  0.07458795     0.36500
C1780       C  0.13795272  0.25233650  0.06984618     0.37200
N1781       N  0.23777585  0.31461243  0.13890946    -0.43600
N1782       N  0.20556664  0.18133146  0.12771914    -0.44000
N1783       N  0.12008929  0.26154219  0.06938558    -0.41400
N1784       N  0.24535196  0.20115862  0.07537324    -0.42800
H1785       H  0.19747408  0.20863025  0.03874527     0.13400
H1786       H  0.16760853  0.25332314  0.10520510     0.09900
H1787       H  0.21436055  0.27525662  0.10076280     0.10900
H1788       H  0.23098796  0.22033044  0.16514046     0.16700
C1789       C  0.15821104  0.10635433  0.20000061    -0.01500
C1790       C  0.16952457  0.12422025  0.18744007     0.07100
C1791       C  0.17948106  0.11952593  0.16571261    -0.07400
C1792       C  0.18172792  0.09691980  0.15834255     0.04600
C1793       C  0.17365158  0.07876191  0.17271298    -0.14700
C1794       C  0.16010212  0.08372249  0.19236189    -0.08000
C1795       C  0.17645284  0.14596304  0.19879371     0.05500
C1796       C  0.19196487  0.14468568  0.21773530    -0.09100
C1797       C  0.20210080  0.16441328  0.22718232     0.00500
C1798       C  0.19661931  0.18628768  0.21768065     0.00400
C1799       C  0.18071506  0.18739763  0.19880317    -0.12700
C1800       C  0.17082353  0.16755407  0.18929802     0.00800
C1801       C  0.21818927  0.16131016  0.24638605     0.40100
C1802       C  0.15497231  0.16972209  0.16978697     0.36700
C1803       C  0.14677269  0.11056562  0.22194523     0.36500
C1804       C  0.19529763  0.09255829  0.13768730     0.37200
N1805       N  0.23112547  0.15862781  0.26170891    -0.43600
N1806       N  0.14225688  0.17142868  0.15415108    -0.44000
N1807       N  0.20630511  0.08909218  0.12120893    -0.41400
N1808       N  0.13765965  0.11388689  0.23957236    -0.42800
H1809       H  0.15380734  0.06980943  0.20347285     0.13400
H1810       H  0.18801038  0.13319809  0.15584099     0.09900
H1811       H  0.19682354  0.12800828  0.22470340     0.10900
H1812       H  0.17608737  0.20382478  0.19113310     0.16700
C1813       C  0.97577738  0.16351260  0.15380833    -0.01500
C1814       C  0.98013233  0.13978247  0.15163768     0.07100
C1815       C  0.98668600  0.12728980  0.17164399    -0.07400
C1816       C  0.98764755  0.13752689  0.19355306     0.04600
C1817       C  0.98326933  0.16120460  0.19586524    -0.14700
C1818       C  0.97749792  0.17401510  0.17577773    -0.08000
C1819       C  0.97716477  0.12718378  0.12914490     0.05500
C1820       C  0.99046118  0.13365283  0.10945550    -0.09100
C1821       C  0.98989912  0.12060103  0.08897289     0.00500
C1822       C  0.97578286  0.10059068  0.08790721     0.00400
C1823       C  0.96196618  0.09460206  0.10730984    -0.12700
C1824       C  0.96248306  0.10758763  0.12767135     0.00800
C1825       C  0.00529163  0.12714845  0.07003077     0.40100
C1826       C  0.94792310  0.10014714  0.14694465     0.36700
C1827       C  0.96820550  0.17711405  0.13405397     0.36500
C1828       C  0.99123211  0.12288075  0.21368183     0.37200
N1829       N  0.01771037  0.13230961  0.05488773    -0.43600
N1830       N  0.93638662  0.09399188  0.16240723    -0.44000
N1831       N  0.99377988  0.11100568  0.22978414    -0.41400
N1832       N  0.96204866  0.18796908  0.11820375    -0.42800
H1833       H  0.97359723  0.19205100  0.17738873     0.13400
H1834       H  0.99020346  0.10911839  0.17028665     0.09900
H1835       H  0.00206728  0.14840825  0.11041219     0.10900
H1836       H  0.95091209  0.07940791  0.10670469     0.16700
C1837       C  0.89762158  0.18680820  0.22585587    -0.01500
C1838       C  0.89874606  0.21102306  0.22459497     0.07100
C1839       C  0.92042499  0.22160789  0.21999843    -0.07400
C1840       C  0.94097205  0.20880103  0.21864364     0.04600
C1841       C  0.94018452  0.18480798  0.22222128    -0.14700
C1842       C  0.91830181  0.17396811  0.22496344    -0.08000
C1843       C  0.87825764  0.22572082  0.23033390     0.05500
C1844       C  0.86706407  0.22277994  0.25204696    -0.09100
C1845       C  0.84789299  0.23632028  0.25832467     0.00500
C1846       C  0.83953220  0.25326061  0.24274148     0.00400
C1847       C  0.85146386  0.25689084  0.22150347    -0.12700
C1848       C  0.87062029  0.24346203  0.21525824     0.00800
C1849       C  0.83630553  0.23159078  0.28021288     0.40100
C1850       C  0.88160527  0.24779988  0.19294136     0.36700
C1851       C  0.87556987  0.17481571  0.22872487     0.36500
C1852       C  0.96285430  0.22116642  0.21639749     0.37200
N1853       N  0.82698050  0.22788747  0.29777245    -0.43600
N1854       N  0.89057429  0.25145496  0.17518269    -0.44000
N1855       N  0.98014105  0.23151333  0.21465447    -0.41400
N1856       N  0.85790432  0.16516942  0.23091662    -0.42800
H1857       H  0.91752977  0.15558465  0.22794555     0.13400
H1858       H  0.92159943  0.24015420  0.21909242     0.09900
H1859       H  0.87322105  0.20968097  0.26409894     0.10900
H1860       H  0.84514812  0.26974028  0.20923405     0.16700
C1861       C  0.05036153  0.20782126  0.22286020    -0.01500
C1862       C  0.06735087  0.19893293  0.23834577     0.07100
C1863       C  0.06310713  0.17770951  0.24934602    -0.07400
C1864       C  0.04158834  0.16630083  0.24666297     0.04600
C1865       C  0.02388225  0.17596442  0.23240856    -0.14700
C1866       C  0.02907633  0.19605801  0.21963547    -0.08000
C1867       C  0.08921489  0.21182953  0.24404887     0.05500
C1868       C  0.08788519  0.23203216  0.25714166    -0.09100
C1869       C  0.10820506  0.24454455  0.26294054     0.00500
C1870       C  0.13017217  0.23719466  0.25494615     0.00400
C1871       C  0.13145914  0.21673173  0.24235465    -0.12700
C1872       C  0.11137675  0.20386368  0.23726771     0.00800
C1873       C  0.10605982  0.26502309  0.27655543     0.40100
C1874       C  0.11401071  0.18260384  0.22498908     0.36700
C1875       C  0.05390483  0.22949146  0.21091250     0.36500
C1876       C  0.03772015  0.14526628  0.25967337     0.37200
N1877       N  0.10435482  0.28134437  0.28764308    -0.43600
N1878       N  0.11626852  0.16544112  0.21540892    -0.44000
N1879       N  0.03468895  0.12850860  0.27029311    -0.41400
N1880       N  0.05655425  0.24693395  0.20140956    -0.42800
H1881       H  0.01579355  0.20359089  0.20852635     0.13400
H1882       H  0.07623203  0.17058575  0.26098049     0.09900
H1883       H  0.07093392  0.23795783  0.26290733     0.10900
H1884       H  0.14834931  0.21076917  0.23640317     0.16700
C1885       C  0.73248500  0.90978243  0.18417710    -0.01500
C1886       C  0.73224170  0.93046196  0.19656391     0.07100
C1887       C  0.72431064  0.93021093  0.21981046    -0.07400
C1888       C  0.71765512  0.90959672  0.23100244     0.04600
C1889       C  0.71764706  0.88902207  0.21847587    -0.14700
C1890       C  0.72490005  0.88945466  0.19504448    -0.08000
C1891       C  0.74072975  0.95233753  0.18569898     0.05500
C1892       C  0.72913064  0.96106574  0.16597642    -0.09100
C1893       C  0.73508053  0.98260002  0.15659532     0.00500
C1894       C  0.75320600  0.99575536  0.16679570     0.00400
C1895       C  0.76603407  0.98623012  0.18536474    -0.12700
C1896       C  0.75976745  0.96482206  0.19502612     0.00800
C1897       C  0.72130776  0.99143301  0.13740381     0.40100
C1898       C  0.77243542  0.95640802  0.21512848     0.36700
C1899       C  0.74220365  0.90868010  0.16097903     0.36500
C1900       C  0.71326914  0.90961417  0.25575479     0.37200
N1901       N  0.71013360  0.99845924  0.12210000    -0.43600
N1902       N  0.78232264  0.94958177  0.23137746    -0.44000
N1903       N  0.71020400  0.90964001  0.27568830    -0.41400
N1904       N  0.75022208  0.90782919  0.14249704    -0.42800
H1905       H  0.72599902  0.87349804  0.18560612     0.13400
H1906       H  0.72429184  0.94602334  0.22952456     0.09900
H1907       H  0.71462272  0.95149470  0.15857035     0.10900
H1908       H  0.77964040  0.99635228  0.19363212     0.16700
C1909       C  0.76167660  0.14672182  0.21116848    -0.01500
C1910       C  0.78211143  0.14363277  0.19784076     0.07100
C1911       C  0.79670195  0.16251543  0.19310949    -0.07400
C1912       C  0.79131778  0.18431823  0.20163238     0.04600
C1913       C  0.77096446  0.18742109  0.21546535    -0.14700
C1914       C  0.75653690  0.16826000  0.22014071    -0.08000
C1915       C  0.78714686  0.12100778  0.18748578     0.05500
C1916       C  0.78178367  0.11769054  0.16388324    -0.09100
C1917       C  0.77862394  0.09551427  0.15527822     0.00500
C1918       C  0.78075705  0.07647593  0.17041779     0.00400
C1919       C  0.78936458  0.07971141  0.19305201    -0.12700
C1920       C  0.79263630  0.10184973  0.20168088     0.00800
C1921       C  0.77076953  0.09257167  0.13157404     0.40100
C1922       C  0.79952721  0.10449077  0.22572738     0.36700
C1923       C  0.74487023  0.12833430  0.21456865     0.36500
C1924       C  0.80708755  0.20296422  0.19575150     0.37200
N1925       N  0.76450610  0.08989321  0.11260750    -0.43600
N1926       N  0.80509751  0.10649981  0.24500013    -0.44000
N1927       N  0.81982395  0.21774458  0.19074575    -0.41400
N1928       N  0.73129286  0.11367103  0.21700814    -0.42800
H1929       H  0.74056284  0.17022553  0.23008794     0.13400
H1930       H  0.81218515  0.16024924  0.18248549     0.09900
H1931       H  0.77790164  0.13235777  0.15278134     0.10900
H1932       H  0.79095269  0.06509133  0.20481044     0.16700
C1933       C  0.85931875  0.04024131  0.08838920    -0.01500
C1934       C  0.85917426  0.02762481  0.10961880     0.07100
C1935       C  0.87919093  0.01500324  0.11573201    -0.07400
C1936       C  0.89885727  0.01453700  0.10098440     0.04600
C1937       C  0.89840822  0.02625659  0.07919860    -0.14700
C1938       C  0.87852876  0.03911978  0.07335624    -0.08000
C1939       C  0.83782385  0.02675330  0.12479659     0.05500
C1940       C  0.81635350  0.02057396  0.11464933    -0.09100
C1941       C  0.79530697  0.02238371  0.12689306     0.00500
C1942       C  0.79535391  0.02918204  0.15042300     0.00400
C1943       C  0.81694968  0.03418950  0.16109699    -0.12700
C1944       C  0.83807068  0.03322070  0.14848176     0.00800
C1945       C  0.77382487  0.01961904  0.11399617     0.40100
C1946       C  0.85950324  0.04025199  0.15977878     0.36700
C1947       C  0.84021102  0.05506866  0.08184788     0.36500
C1948       C  0.91894635  0.00148996  0.10846325     0.37200
N1949       N  0.75684235  0.01776053  0.10315568    -0.43600
N1950       N  0.87672793  0.04587042  0.16877578    -0.44000
N1951       N  0.93511192  0.99121752  0.11462360    -0.41400
N1952       N  0.82492369  0.06698236  0.07664013    -0.42800
H1953       H  0.87814062  0.04878084  0.05707063     0.13400
H1954       H  0.87934448  0.00521221  0.13192612     0.09900
H1955       H  0.81589455  0.01546491  0.09653966     0.10900
H1956       H  0.81718252  0.03977445  0.17902595     0.16700
C1957       C  0.08959884  0.77188961  0.19309239    -0.01500
C1958       C  0.07635727  0.79107703  0.20001563     0.07100
C1959       C  0.08271520  0.80229125  0.22056508    -0.07400
C1960       C  0.10292249  0.79610627  0.23286650     0.04600
C1961       C  0.11772751  0.77880508  0.22431640    -0.14700
C1962       C  0.11035845  0.76618474  0.20497287    -0.08000
C1963       C  0.05536360  0.79917624  0.18670513     0.05500
C1964       C  0.03388561  0.80087470  0.19835481    -0.09100
C1965       C  0.01316894  0.80523837  0.18605766     0.00500
C1966       C  0.01358970  0.80772323  0.16150067     0.00400
C1967       C  0.03532863  0.80831721  0.15011560    -0.12700
C1968       C  0.05620627  0.80465309  0.16260955     0.00800
C1969       C  0.99135376  0.80423550  0.19873775     0.40100
C1970       C  0.07824759  0.80620655  0.15036137     0.36700
C1971       C  0.08208603  0.75766900  0.17404724     0.36500
C1972       C  0.10819858  0.80787352  0.25426839     0.37200
N1973       N  0.97394682  0.80315897  0.20900072    -0.43600
N1974       N  0.09601921  0.80745418  0.14073894    -0.44000
N1975       N  0.11226144  0.81714323  0.27153505    -0.41400
N1976       N  0.07592542  0.74629524  0.15881086    -0.42800
H1977       H  0.12131733  0.75259541  0.19848612     0.13400
H1978       H  0.07213051  0.81629241  0.22676948     0.09900
H1979       H  0.03304928  0.79735841  0.21694926     0.10900
H1980       H  0.03588052  0.81022745  0.13129790     0.16700
C1981       C  0.89021295  0.78416045  0.15395168    -0.01500
C1982       C  0.88334590  0.79817964  0.17248651     0.07100
C1983       C  0.89895464  0.81524961  0.18020266    -0.07400
C1984       C  0.92165423  0.81742859  0.17086921     0.04600
C1985       C  0.92910554  0.80225911  0.15336382    -0.14700
C1986       C  0.91266512  0.78649229  0.14446152    -0.08000
C1987       C  0.86032214  0.79476609  0.18445178     0.05500
C1988       C  0.85523042  0.77369593  0.19567603    -0.09100
C1989       C  0.83380551  0.76986614  0.20727071     0.00500
C1990       C  0.81694599  0.78744792  0.20796416     0.00400
C1991       C  0.82216070  0.80840355  0.19635448    -0.12700
C1992       C  0.84344509  0.81218130  0.18484550     0.00800
C1993       C  0.82994515  0.74798864  0.21868039     0.40100
C1994       C  0.84724353  0.83393143  0.17305560     0.36700
C1995       C  0.87472481  0.76685710  0.14465430     0.36500
C1996       C  0.93707802  0.83441321  0.18074093     0.37200
N1997       N  0.82682650  0.73042891  0.22781252    -0.43600
N1998       N  0.85017891  0.85135485  0.16359215    -0.44000
N1999       N  0.94910531  0.84824450  0.18884666    -0.41400
N2000       N  0.86228936  0.75302853  0.13716422    -0.42800
H2001       H  0.91781959  0.77499767  0.13071693     0.13400
H2002       H  0.89371965  0.82629385  0.19429702     0.09900
H2003       H  0.86818974  0.76022259  0.19554909     0.10900
H2004       H  0.80948144  0.82210912  0.19611078     0.16700
C2005       C  0.95611381  0.92077448  0.10336881    -0.01500
C2006       C  0.97551285  0.90601961  0.10604518     0.07100
C2007       C  0.99696552  0.91282211  0.09598014    -0.07400
C2008       C  0.99905815  0.93332474  0.08290218     0.04600
C2009       C  0.97930497  0.94728338  0.07899588    -0.14700
C2010       C  0.95809379  0.94104206  0.08982648    -0.08000
C2011       C  0.97355728  0.88302588  0.11819277     0.05500
C2012       C  0.95823120  0.86638605  0.10922413    -0.09100
C2013       C  0.95716775  0.84402024  0.11867322     0.00500
C2014       C  0.97121915  0.83781560  0.13821752     0.00400
C2015       C  0.98627234  0.85469726  0.14738367    -0.12700
C2016       C  0.98767412  0.87691540  0.13752007     0.00800
C2017       C  0.94275668  0.82753406  0.10664187     0.40100
C2018       C  0.00384053  0.89317169  0.14752615     0.36700
C2019       C  0.93405293  0.91558931  0.11457235     0.36500
C2020       C  0.02188250  0.94011173  0.07440152     0.37200
N2021       N  0.93118361  0.81445890  0.09680095    -0.43600
N2022       N  0.01690418  0.90619517  0.15543085    -0.44000
N2023       N  0.04034365  0.94561636  0.06806816    -0.41400
N2024       N  0.91640735  0.91150508  0.12367384    -0.42800
H2025       H  0.94284361  0.95170961  0.08718490     0.13400
H2026       H  0.01211791  0.90191266  0.09809623     0.09900
H2027       H  0.94769349  0.87063567  0.09404777     0.10900
H2028       H  0.99715445  0.85051400  0.16227286     0.16700
C2029       C  0.19598085  0.89672666  0.83582727    -0.01500
C2030       C  0.19978001  0.91798436  0.82449714     0.07100
C2031       C  0.20887528  0.91847293  0.80180828    -0.07400
C2032       C  0.21449196  0.89824300  0.79038716     0.04600
C2033       C  0.21124114  0.87687261  0.80186518    -0.14700
C2034       C  0.20169956  0.87642237  0.82449283    -0.08000
C2035       C  0.19680646  0.94010352  0.83648473     0.05500
C2036       C  0.21224078  0.94539168  0.85469518    -0.09100
C2037       C  0.21449120  0.96787318  0.86257260     0.00500
C2038       C  0.20074659  0.98537511  0.85246888     0.00400
C2039       C  0.18372432  0.97964738  0.83583351    -0.12700
C2040       C  0.18179432  0.95723033  0.82763280     0.00800
C2041       C  0.23197063  0.97275773  0.88005353     0.40100
C2042       C  0.16512919  0.95248118  0.80933990     0.36700
C2043       C  0.18588652  0.89532900  0.85886057     0.36500
C2044       C  0.22273007  0.90010270  0.76666430     0.37200
N2045       N  0.24610082  0.97663874  0.89395944    -0.43600
N2046       N  0.15172716  0.94883930  0.79467469    -0.44000
N2047       N  0.22913225  0.90202328  0.74760917    -0.41400
N2048       N  0.17763163  0.89413918  0.87725072    -0.42800
H2049       H  0.19893804  0.86015736  0.83349486     0.13400
H2050       H  0.21193535  0.93483972  0.79309411     0.09900
H2051       H  0.22380049  0.93227347  0.86156494     0.10900
H2052       H  0.17319984  0.99302052  0.82787396     0.16700
C2053       C  0.18225766  0.15577638  0.82067832    -0.01500
C2054       C  0.19683471  0.13665914  0.81855443     0.07100
C2055       C  0.21727393  0.13850875  0.80519046    -0.07400
C2056       C  0.22360361  0.15915707  0.79414717     0.04600
C2057       C  0.20908542  0.17866615  0.79626408    -0.14700
C2058       C  0.18837427  0.17648955  0.80954276    -0.08000
C2059       C  0.19163060  0.11438487  0.83016503     0.05500
C2060       C  0.18478733  0.09596244  0.81624864    -0.09100
C2061       C  0.18576926  0.07347895  0.82487227     0.00500
C2062       C  0.19342523  0.06926302  0.84792079     0.00400
C2063       C  0.19819187  0.08783907  0.86251045    -0.12700
C2064       C  0.19739653  0.11038231  0.85377537     0.00800
C2065       C  0.18181422  0.05494529  0.80885769     0.40100
C2066       C  0.20483755  0.12892077  0.86855233     0.36700
C2067       C  0.16100135  0.15449098  0.83420553     0.36500
C2068       C  0.24553960  0.15969857  0.78163362     0.37200
N2069       N  0.17871142  0.04000994  0.79611962    -0.43600
N2070       N  0.21085149  0.14386226  0.88026013    -0.44000
N2071       N  0.26315639  0.15988391  0.77168108    -0.41400
N2072       N  0.14397819  0.15344667  0.84509271    -0.42800
H2073       H  0.17692222  0.19106413  0.81145224     0.13400
H2074       H  0.22857689  0.12373838  0.80372000     0.09900
H2075       H  0.18053366  0.09903429  0.79804437     0.10900
H2076       H  0.20454547  0.08463853  0.88006988     0.16700
C2077       C  0.10215050  0.04612960  0.92255679    -0.01500
C2078       C  0.10277077  0.03036235  0.90412654     0.07100
C2079       C  0.08288886  0.01692936  0.89948311    -0.07400
C2080       C  0.06278341  0.01849470  0.91334913     0.04600
C2081       C  0.06250251  0.03363713  0.93241359    -0.14700
C2082       C  0.08223642  0.04748396  0.93660767    -0.08000
C2083       C  0.12461060  0.02685094  0.89065388     0.05500
C2084       C  0.14461033  0.01954471  0.90272889    -0.09100
C2085       C  0.16631413  0.01872901  0.89163292     0.00500
C2086       C  0.16831325  0.02514657  0.86793284     0.00400
C2087       C  0.14806986  0.03111823  0.85543190    -0.12700
C2088       C  0.12621766  0.03184272  0.86657024     0.00800
C2089       C  0.18655673  0.01245770  0.90527729     0.40100
C2090       C  0.10586012  0.03841077  0.85320925     0.36700
C2091       C  0.12179233  0.06112413  0.92731150     0.36500
C2092       C  0.04338156  0.00330985  0.90842873     0.37200
N2093       N  0.20273356  0.00742363  0.91631230    -0.43600
N2094       N  0.08941018  0.04346494  0.84258744    -0.44000
N2095       N  0.02801381  0.99100492  0.90421042    -0.41400
N2096       N  0.13761659  0.07306646  0.93096186    -0.42800
H2097       H  0.08215581  0.05930403  0.95104471     0.13400
H2098       H  0.08335636  0.00467502  0.88544439     0.09900
H2099       H  0.14337321  0.01523165  0.92114528     0.10900
H2100       H  0.14934856  0.03551602  0.83712172     0.16700
C2101       C  0.91173782  0.83852054  0.81464477    -0.01500
C2102       C  0.89423388  0.85515398  0.81148570     0.07100
C2103       C  0.90085314  0.87826669  0.80890386    -0.07400
C2104       C  0.92454222  0.88449124  0.80646665     0.04600
C2105       C  0.94184473  0.86741327  0.80639105    -0.14700
C2106       C  0.93532724  0.84469346  0.81177501    -0.08000
C2107       C  0.87031056  0.84802513  0.80418293     0.05500
C2108       C  0.85246542  0.84439484  0.82058968    -0.09100
C2109       C  0.83035942  0.83606729  0.81365100     0.00500
C2110       C  0.82617173  0.83053707  0.78995538     0.00400
C2111       C  0.84408519  0.83470678  0.77365324    -0.12700
C2112       C  0.86578988  0.84360743  0.78049885     0.00800
C2113       C  0.81260427  0.83301215  0.83131750     0.40100
C2114       C  0.88338143  0.84805291  0.76290000     0.36700
C2115       C  0.90567166  0.81464349  0.81814841     0.36500
C2116       C  0.93048925  0.90810339  0.80140621     0.37200
N2117       N  0.79840762  0.83086575  0.84556293    -0.43600
N2118       N  0.89758508  0.85183371  0.74897669    -0.44000
N2119       N  0.93527111  0.92705097  0.79739129    -0.41400
N2120       N  0.90068312  0.79555259  0.82101439    -0.42800
H2121       H  0.94840849  0.83135074  0.81126523     0.13400
H2122       H  0.88744911  0.89113504  0.80648652     0.09900
H2123       H  0.85587090  0.84788634  0.83880708     0.10900
H2124       H  0.84106906  0.83121712  0.75536622     0.16700
C2125       C  0.05716947  0.84696480  0.78518617    -0.01500
C2126       C  0.07076667  0.86034076  0.76948065     0.07100
C2127       C  0.06219591  0.88172261  0.76200996    -0.07400
C2128       C  0.03970073  0.88888518  0.76844643     0.04600
C2129       C  0.02543245  0.87457896  0.78258273    -0.14700
C2130       C  0.03475789  0.85417419  0.79162016    -0.08000
C2131       C  0.09366408  0.85196427  0.76048106     0.05500
C2132       C  0.09416690  0.83222660  0.74662448    -0.09100
C2133       C  0.11550641  0.82218272  0.74024621     0.00500
C2134       C  0.13683267  0.83189358  0.74780701     0.00400
C2135       C  0.13627089  0.85247332  0.76035663    -0.12700
C2136       C  0.11501570  0.86253928  0.76664986     0.00800
C2137       C  0.11504754  0.80094945  0.72765589     0.40100
C2138       C  0.11555071  0.88274349  0.78091470     0.36700
C2139       C  0.06557128  0.82543306  0.79443578     0.36500
C2140       C  0.03131434  0.91072278  0.75996742     0.37200
N2141       N  0.11474811  0.78390299  0.71758096    -0.43600
N2142       N  0.11590541  0.89891286  0.79237630    -0.44000
N2143       N  0.02469775  0.92836201  0.75342006    -0.41400
N2144       N  0.07225212  0.80816952  0.80190809    -0.42800
H2145       H  0.02381156  0.84296783  0.80229852     0.13400
H2146       H  0.07273257  0.89242441  0.75045010     0.09900
H2147       H  0.07780378  0.82411547  0.74160299     0.10900
H2148       H  0.15256283  0.86000054  0.76646203     0.16700
C2149       C  0.99831144  0.92510141  0.84170195    -0.01500
C2150       C  0.99245467  0.91515823  0.86360385     0.07100
C2151       C  0.98704673  0.89160471  0.86467924    -0.07400
C2152       C  0.98617911  0.87842162  0.84436743     0.04600
C2153       C  0.98995972  0.88888350  0.82241135    -0.14700
C2154       C  0.99671653  0.91204729  0.82141932    -0.08000
C2155       C  0.98980252  0.92958650  0.88484049     0.05500
C2156       C  0.97532558  0.94888293  0.88331795    -0.09100
C2157       C  0.97290939  0.96382973  0.90199282     0.00500
C2158       C  0.98467492  0.95935542  0.92327189     0.00400
C2159       C  0.99821509  0.93940084  0.92529120    -0.12700
C2160       C  0.00096708  0.92463058  0.90634028     0.00800
C2161       C  0.95797965  0.98347120  0.89869439     0.40100
C2162       C  0.01594541  0.90501279  0.90930007     0.36700
C2163       C  0.00587772  0.94873286  0.83957642     0.36500
C2164       C  0.98193086  0.85412787  0.84650164     0.37200
N2165       N  0.94607995  0.99919710  0.89573307    -0.43600
N2166       N  0.02789355  0.88926632  0.91192250    -0.44000
N2167       N  0.97885257  0.83457956  0.84849090    -0.41400
N2168       N  0.01192128  0.96767021  0.83800397    -0.42800
H2169       H  0.00003168  0.92012297  0.80460522     0.13400
H2170       H  0.98279362  0.88359445  0.88130980     0.09900
H2171       H  0.96593210  0.95243686  0.86724123     0.10900
H2172       H  0.00730549  0.93569900  0.94150452     0.16700
C2173       C  0.87692948  0.25059265  0.77816521    -0.01500
C2174       C  0.88331109  0.22986367  0.76751009     0.07100
C2175       C  0.86898990  0.22130574  0.74957445    -0.07400
C2176       C  0.84861594  0.23282268  0.74241678     0.04600
C2177       C  0.84256059  0.25380308  0.75271940    -0.14700
C2178       C  0.85699672  0.26243118  0.77050342    -0.08000
C2179       C  0.90424568  0.21637089  0.77520088     0.05500
C2180       C  0.90136521  0.19316011  0.78173369    -0.09100
C2181       C  0.92077762  0.17925167  0.78669512     0.00500
C2182       C  0.94356482  0.18870731  0.78608137     0.00400
C2183       C  0.94639231  0.21204182  0.78036810    -0.12700
C2184       C  0.92715851  0.22573911  0.77456826     0.00800
C2185       C  0.91704634  0.15507325  0.79099845     0.40100
C2186       C  0.93173887  0.24869755  0.76597089     0.36700
C2187       C  0.88941639  0.25918242  0.79818284     0.36500
C2188       C  0.83309880  0.22161183  0.72619388     0.37200
N2189       N  0.91404352  0.13565606  0.79423299    -0.43600
N2190       N  0.93559753  0.26704470  0.75901701    -0.44000
N2191       N  0.82061892  0.21234970  0.71342848    -0.41400
N2192       N  0.89935379  0.26607613  0.81426069    -0.42800
H2193       H  0.85188710  0.27790005  0.77939274     0.13400
H2194       H  0.87336473  0.20514686  0.74160694     0.09900
H2195       H  0.88393178  0.18565430  0.78206968     0.10900
H2196       H  0.96392365  0.21920498  0.77881682     0.16700
C2197       C  0.04647035  0.22460389  0.78230294    -0.01500
C2198       C  0.06702432  0.21389654  0.77414160     0.07100
C2199       C  0.06669611  0.18997771  0.77130266    -0.07400
C2200       C  0.04610914  0.17711883  0.77474101     0.04600
C2201       C  0.02543926  0.18803340  0.78189356    -0.14700
C2202       C  0.02608454  0.21159625  0.78630811    -0.08000
C2203       C  0.08905831  0.22708535  0.76879651     0.05500
C2204       C  0.09828316  0.24194281  0.78556074    -0.09100
C2205       C  0.11929078  0.25386265  0.78168963     0.00500
C2206       C  0.13264830  0.24979867  0.76143711     0.00400
C2207       C  0.12305380  0.23578126  0.74412828    -0.12700
C2208       C  0.10128317  0.22478024  0.74746218     0.00800
C2209       C  0.12607740  0.27105534  0.79830317     0.40100
C2210       C  0.09179361  0.21142631  0.72862011     0.36700
C2211       C  0.04528999  0.24905311  0.78558784     0.36500
C2212       C  0.04653580  0.15276556  0.77067935     0.37200
N2213       N  0.13081529  0.28520340  0.81147736    -0.43600
N2214       N  0.08415852  0.20079756  0.71347029    -0.44000
N2215       N  0.04677884  0.13324203  0.76742483    -0.41400
N2216       N  0.04426076  0.26861339  0.78843562    -0.42800
H2217       H  0.01018026  0.22014922  0.79155688     0.13400
H2218       H  0.08250766  0.18134098  0.76596462     0.09900
H2219       H  0.08912978  0.24420405  0.80190008     0.10900
H2220       H  0.13288375  0.23282128  0.72830676     0.16700
C2221       C  0.00389671  0.14478940  0.84910820    -0.01500
C2222       C  0.98792473  0.15181264  0.86624922     0.07100
C2223       C  0.97387193  0.17095696  0.86153137    -0.07400
C2224       C  0.97413356  0.18180039  0.83941863     0.04600
C2225       C  0.98812016  0.17302758  0.82129172    -0.14700
C2226       C  0.00367956  0.15510306  0.82695260    -0.08000
C2227       C  0.98410934  0.13778812  0.88792705     0.05500
C2228       C  0.99064080  0.14618665  0.90987763    -0.09100
C2229       C  0.98887216  0.13227058  0.93015301     0.00500
C2230       C  0.98075009  0.10932067  0.92852691     0.00400
C2231       C  0.97288429  0.10170282  0.90661096    -0.12700
C2232       C  0.97441929  0.11555961  0.88661686     0.00800
C2233       C  0.99580926  0.14199526  0.95209404     0.40100
C2234       C  0.96605131  0.10642593  0.86481078     0.36700
C2235       C  0.02023960  0.12648598  0.85361364     0.36500
C2236       C  0.96034641  0.20213710  0.83614451     0.37200
N2237       N  0.00108190  0.15024300  0.96958306    -0.43600
N2238       N  0.95938866  0.09905453  0.84736504    -0.44000
N2239       N  0.94940336  0.21865414  0.83418920    -0.41400
N2240       N  0.03345110  0.11191334  0.85714420    -0.42800
H2241       H  0.01499509  0.14821074  0.81368246     0.13400
H2242       H  0.96211158  0.17698073  0.87490322     0.09900
H2243       H  0.99762740  0.16346286  0.91109085     0.10900
H2244       H  0.96572005  0.08453475  0.90489057     0.16700
C2245       C  0.79061720  0.97277659  0.78787888    -0.01500
C2246       C  0.80008426  0.95747203  0.77158845     0.07100
C2247       C  0.82128961  0.96319207  0.76051557    -0.07400
C2248       C  0.83219179  0.98440157  0.76428425     0.04600
C2249       C  0.82189818  0.00027925  0.77939513    -0.14700
C2250       C  0.80166618  0.99393019  0.79178230    -0.08000
C2251       C  0.78827971  0.93540017  0.76588358     0.05500
C2252       C  0.76636238  0.93543113  0.75454994    -0.09100
C2253       C  0.75470769  0.91475417  0.74938954     0.00500
C2254       C  0.76489130  0.89373961  0.75593165     0.00400
C2255       C  0.78708482  0.89381141  0.76659812    -0.12700
C2256       C  0.79882227  0.91429425  0.77146734     0.00800
C2257       C  0.73201928  0.91541778  0.73832601     0.40100
C2258       C  0.82129028  0.91320178  0.78301925     0.36700
C2259       C  0.76923610  0.96748578  0.80027019     0.36500
C2260       C  0.85345138  0.98998182  0.75177164     0.37200
N2261       N  0.71383767  0.91567471  0.72940318    -0.43600
N2262       N  0.83930105  0.91232528  0.79224095    -0.44000
N2263       N  0.87051644  0.99451660  0.74181964    -0.41400
N2264       N  0.75206742  0.96340291  0.81023265    -0.42800
H2265       H  0.79346977  0.00621556  0.80314629     0.13400
H2266       H  0.82890750  0.95136487  0.74829080     0.09900
H2267       H  0.75830239  0.95162326  0.74991606     0.10900
H2268       H  0.79514602  0.87768466  0.77155930     0.16700
C2269       C  0.79839984  0.10926871  0.81299579    -0.01500
C2270       C  0.81240484  0.12770134  0.80488993     0.07100
C2271       C  0.83493792  0.12342459  0.79637485    -0.07400
C2272       C  0.84211625  0.10094408  0.79251713     0.04600
C2273       C  0.82686818  0.08256622  0.79791927    -0.14700
C2274       C  0.80586666  0.08677822  0.80967289    -0.08000
C2275       C  0.80143138  0.14966212  0.79820525     0.05500
C2276       C  0.79912878  0.16726998  0.81433797    -0.09100
C2277       C  0.78834967  0.18794309  0.80788020     0.00500
C2278       C  0.77950005  0.19098060  0.78490345     0.00400
C2279       C  0.78182050  0.17307927  0.76898550    -0.12700
C2280       C  0.79270380  0.15266233  0.77539489     0.00800
C2281       C  0.78624743  0.20540652  0.82532997     0.40100
C2282       C  0.79476521  0.13488452  0.75822592     0.36700
C2283       C  0.77501748  0.11296787  0.82165025     0.36500
C2284       C  0.86382754  0.09716145  0.78035966     0.37200
N2285       N  0.78468424  0.21940519  0.83932539    -0.43600
N2286       N  0.79655930  0.12057329  0.74459052    -0.44000
N2287       N  0.88108952  0.09394554  0.77043630    -0.41400
N2288       N  0.75622980  0.11592393  0.82844792    -0.42800
H2289       H  0.79394829  0.07266850  0.81351848     0.13400
H2290       H  0.84567960  0.13760748  0.79005652     0.09900
H2291       H  0.80571252  0.16483299  0.83193003     0.10900
H2292       H  0.77545841  0.17512753  0.75126284     0.16700
C2293       C  0.84025991  0.03707852  0.85952583    -0.01500
C2294       C  0.86487044  0.03474722  0.86067624     0.07100
C2295       C  0.87738219  0.03173705  0.83991057    -0.07400
C2296       C  0.86602582  0.03206122  0.81827935     0.04600
C2297       C  0.84162006  0.03522090  0.81704102    -0.14700
C2298       C  0.82888593  0.03741087  0.83776000    -0.08000
C2299       C  0.87823746  0.03565345  0.88304872     0.05500
C2300       C  0.87489119  0.01833966  0.89999763    -0.09100
C2301       C  0.88920357  0.01711175  0.91992514     0.00500
C2302       C  0.90723766  0.03347573  0.92317211     0.00400
C2303       C  0.91013683  0.05113677  0.90653855    -0.12700
C2304       C  0.89583817  0.05240885  0.88670439     0.00800
C2305       C  0.88615348  0.99796033  0.93582864     0.40100
C2306       C  0.89967535  0.07103495  0.87027685     0.36700
C2307       C  0.82642143  0.04015229  0.88024900     0.36500
C2308       C  0.87993238  0.03037396  0.79741916     0.37200
N2309       N  0.88373682  0.98247896  0.94842959    -0.43600
N2310       N  0.90281404  0.08596422  0.85714062    -0.44000
N2311       N  0.89118613  0.02907840  0.78074106    -0.41400
N2312       N  0.81512607  0.04257812  0.89674981    -0.42800
H2313       H  0.81015475  0.04006869  0.83683582     0.13400
H2314       H  0.89622761  0.02964757  0.84059037     0.09900
H2315       H  0.86168471  0.00520656  0.89717645     0.10900
H2316       H  0.92380150  0.06391359  0.90896461     0.16700
C2317       C  0.19613933  0.88300879  0.09226040    -0.01500
C2318       C  0.18261770  0.86319495  0.09701512     0.07100
C2319       C  0.17029199  0.85270348  0.07886931    -0.07400
C2320       C  0.17387093  0.85978373  0.05570946     0.04600
C2321       C  0.18993900  0.87772221  0.05070717    -0.14700
C2322       C  0.19984523  0.89003180  0.06915706    -0.08000
C2323       C  0.18604029  0.85011011  0.11901715     0.05500
C2324       C  0.16822585  0.84868855  0.13572487    -0.09100
C2325       C  0.17165747  0.83657488  0.15676930     0.00500
C2326       C  0.19336482  0.82557989  0.16120329     0.00400
C2327       C  0.21069225  0.82644396  0.14383049    -0.12700
C2328       C  0.20724986  0.83853214  0.12302303     0.00800
C2329       C  0.15240722  0.83543125  0.17305718     0.40100
C2330       C  0.22596058  0.83903984  0.10607188     0.36700
C2331       C  0.20832390  0.89481144  0.11068224     0.36500
C2332       C  0.16349635  0.84624193  0.03746388     0.37200
N2333       N  0.13682878  0.83456238  0.18593343    -0.43600
N2334       N  0.24098154  0.83959017  0.09255392    -0.44000
N2335       N  0.15523346  0.83520466  0.02294955    -0.41400
N2336       N  0.21809562  0.90412409  0.12553207    -0.42800
H2337       H  0.21212134  0.90387468  0.06543618     0.13400
H2338       H  0.15984218  0.83747770  0.08255030     0.09900
H2339       H  0.15173403  0.85721888  0.13239482     0.10900
H2340       H  0.22740407  0.81817144  0.14667572     0.16700
C2341       C  0.20306641  0.83018456  0.94710833    -0.01500
C2342       C  0.20821042  0.84195395  0.92602384     0.07100
C2343       C  0.20817715  0.86609610  0.92575898    -0.07400
C2344       C  0.20483063  0.87836440  0.94639690     0.04600
C2345       C  0.20087621  0.86645044  0.96752276    -0.14700
C2346       C  0.19898094  0.84248606  0.96741602    -0.08000
C2347       C  0.21379808  0.82924142  0.90433008     0.05500
C2348       C  0.19741473  0.81337038  0.89585872    -0.09100
C2349       C  0.20180547  0.80093887  0.87565967     0.00500
C2350       C  0.22288598  0.80449653  0.86313216     0.00400
C2351       C  0.23960372  0.81989106  0.87193049    -0.12700
C2352       C  0.23526697  0.83220625  0.89234195     0.00800
C2353       C  0.18440655  0.78441400  0.86838339     0.40100
C2354       C  0.25319240  0.84765039  0.90065727     0.36700
C2355       C  0.20423093  0.80551824  0.94900002     0.36500
C2356       C  0.20652476  0.90304710  0.94580768     0.37200
N2357       N  0.17035965  0.77110993  0.86294765    -0.43600
N2358       N  0.26763732  0.85999877  0.90724120    -0.44000
N2359       N  0.20776541  0.92285125  0.94540811    -0.41400
N2360       N  0.20535951  0.78577767  0.95070246    -0.42800
H2361       H  0.19654144  0.83324729  0.98379353     0.13400
H2362       H  0.21164474  0.87532926  0.90959343     0.09900
H2363       H  0.18097866  0.81079237  0.90501925     0.10900
H2364       H  0.25567466  0.82303479  0.86231359     0.16700
C2365       C  0.10302713  0.95336575  0.98782369    -0.01500
C2366       C  0.10310838  0.93076689  0.99695445     0.07100
C2367       C  0.08218645  0.92159878  0.00620837    -0.07400
C2368       C  0.06172031  0.93480394  0.00721741     0.04600
C2369       C  0.06223257  0.95800745  0.99965930    -0.14700
C2370       C  0.08288926  0.96668355  0.98941383    -0.08000
C2371       C  0.12529271  0.91740859  0.99867124     0.05500
C2372       C  0.14454160  0.92749309  0.00991201    -0.09100
C2373       C  0.16591546  0.91619153  0.01168223     0.00500
C2374       C  0.16819394  0.89369153  0.00327556     0.00400
C2375       C  0.14915263  0.88355264  0.99171691    -0.12700
C2376       C  0.12779140  0.89525103  0.98929242     0.00800
C2377       C  0.18565735  0.92847626  0.02128524     0.40100
C2378       C  0.10897109  0.88452570  0.97654114     0.36700
C2379       C  0.12345496  0.96345768  0.97680846     0.36500
C2380       C  0.04075073  0.92418599  0.01651488     0.37200
N2381       N  0.20156189  0.93834936  0.02878911    -0.43600
N2382       N  0.09384823  0.87601671  0.96626964    -0.44000
N2383       N  0.02389502  0.91554804  0.02373080    -0.41400
N2384       N  0.13981200  0.97165968  0.96809328    -0.42800
H2385       H  0.08341053  0.98412828  0.98264007     0.13400
H2386       H  0.08198636  0.90425556  0.01323171     0.09900
H2387       H  0.14295663  0.94449485  0.01713085     0.10900
H2388       H  0.15096017  0.86650775  0.98471816     0.16700
C2389       C  0.75308672  0.21295625  0.12706063    -0.01500
C2390       C  0.74338314  0.22026463  0.10563402     0.07100
C2391       C  0.72732295  0.23851983  0.10554790    -0.07400
C2392       C  0.72157077  0.24992706  0.12623846     0.04600
C2393       C  0.73194802  0.24301288  0.14743324    -0.14700
C2394       C  0.74728328  0.22423582  0.14751766    -0.08000
C2395       C  0.74929951  0.20865635  0.08338195     0.05500
C2396       C  0.74470268  0.18506689  0.08134578    -0.09100
C2397       C  0.74831809  0.17382461  0.06024762     0.00500
C2398       C  0.75659274  0.18620057  0.04061949     0.00400
C2399       C  0.76259056  0.20941242  0.04297033    -0.12700
C2400       C  0.75894162  0.22072069  0.06407431     0.00800
C2401       C  0.74294067  0.14966081  0.05892775     0.40100
C2402       C  0.76473711  0.24480038  0.06524995     0.36700
C2403       C  0.76970192  0.19444917  0.12860686     0.36500
C2404       C  0.70590887  0.26916122  0.12512419     0.37200
N2405       N  0.73876064  0.13026673  0.05785925    -0.43600
N2406       N  0.76935180  0.26412275  0.06600517    -0.44000
N2407       N  0.69330924  0.28457369  0.12421246    -0.41400
N2408       N  0.78293441  0.17959193  0.13015398    -0.42800
H2409       H  0.75536742  0.21867182  0.16375188     0.13400
H2410       H  0.71942127  0.24399130  0.08922804     0.09900
H2411       H  0.73751205  0.17554615  0.09607574     0.10900
H2412       H  0.76870107  0.21909855  0.02785932     0.16700
C2413       C  0.72621736  0.22285515  0.88103018    -0.01500
C2414       C  0.74603666  0.22866784  0.89468553     0.07100
C2415       C  0.75989432  0.24740074  0.88762865    -0.07400
C2416       C  0.75484530  0.25984495  0.86726226     0.04600
C2417       C  0.73603936  0.25314408  0.85263644    -0.14700
C2418       C  0.72149479  0.23494158  0.86011230    -0.08000
C2419       C  0.75267620  0.21563312  0.91636671     0.05500
C2420       C  0.75618909  0.19179668  0.91542253    -0.09100
C2421       C  0.76057203  0.17887939  0.93579389     0.00500
C2422       C  0.76188753  0.18979500  0.95749539     0.00400
C2423       C  0.76028559  0.21373462  0.95821003    -0.12700
C2424       C  0.75563456  0.22666685  0.93801661     0.00800
C2425       C  0.76265153  0.15430469  0.93439267     0.40100
C2426       C  0.75213340  0.25099073  0.94045858     0.36700
C2427       C  0.71043301  0.20465829  0.88822185     0.36500
C2428       C  0.76936567  0.27959206  0.86198948     0.37200
N2429       N  0.76444650  0.13459507  0.93356988    -0.43600
N2430       N  0.74940610  0.27048297  0.94253879    -0.44000
N2431       N  0.78110974  0.29549080  0.85839347    -0.41400
N2432       N  0.69782359  0.19009299  0.89414565    -0.42800
H2433       H  0.70703537  0.22952679  0.84916670     0.13400
H2434       H  0.77501995  0.25221245  0.89797572     0.09900
H2435       H  0.75477316  0.18316925  0.89885239     0.10900
H2436       H  0.76063812  0.22217280  0.97495267     0.16700
C2437       C  0.81606200  0.13554545  0.01095051    -0.01500
C2438       C  0.83665343  0.14649091  0.00271188     0.07100
C2439       C  0.83513258  0.16937184  0.99464209    -0.07400
C2440       C  0.81343902  0.18090256  0.99406373     0.04600
C2441       C  0.79284339  0.16955825  0.00168596    -0.14700
C2442       C  0.79463903  0.14698405  0.01031967    -0.08000
C2443       C  0.85915433  0.13338822  0.00117594     0.05500
C2444       C  0.85957428  0.11380535  0.98728544    -0.09100
C2445       C  0.87868492  0.09887519  0.98755579     0.00500
C2446       C  0.89842886  0.10332270  0.00188938     0.00400
C2447       C  0.89864456  0.12376660  0.01477049    -0.12700
C2448       C  0.87923630  0.13868273  0.01455618     0.00800
C2449       C  0.87741965  0.07922667  0.97257788     0.40100
C2450       C  0.87987006  0.15880254  0.02889775     0.36700
C2451       C  0.81637886  0.11234872  0.02001428     0.36500
C2452       C  0.81272130  0.20426665  0.98565973     0.37200
N2453       N  0.87604523  0.06356871  0.96048377    -0.43600
N2454       N  0.88025682  0.17501638  0.04029417    -0.44000
N2455       N  0.81235796  0.22305634  0.97896499    -0.41400
N2456       N  0.81661903  0.09372602  0.02717830    -0.42800
H2457       H  0.77895612  0.13798576  0.01607784     0.13400
H2458       H  0.85077055  0.17803381  0.98827583     0.09900
H2459       H  0.84446467  0.10980940  0.97654927     0.10900
H2460       H  0.91362472  0.12771278  0.02567236     0.16700
C2461       C  0.82041308  0.82240658  0.09106948    -0.01500
C2462       C  0.79981732  0.83527914  0.09303203     0.07100
C2463       C  0.79069918  0.84624583  0.07319575    -0.07400
C2464       C  0.80012488  0.84224399  0.05107994     0.04600
C2465       C  0.81911360  0.82702596  0.04873992    -0.14700
C2466       C  0.82995259  0.81844214  0.06904528    -0.08000
C2467       C  0.78453412  0.83234540  0.11373659     0.05500
C2468       C  0.78791599  0.84576121  0.13349540    -0.09100
C2469       C  0.77461831  0.84174569  0.15374010     0.00500
C2470       C  0.75749395  0.82382796  0.15435637     0.00400
C2471       C  0.75384585  0.81100779  0.13405911    -0.12700
C2472       C  0.76729235  0.81495941  0.11406003     0.00800
C2473       C  0.77940052  0.85611327  0.17353681     0.40100
C2474       C  0.76403093  0.80014222  0.09431377     0.36700
C2475       C  0.83042612  0.81108605  0.11117223     0.36500
C2476       C  0.78802635  0.85179858  0.03119878     0.37200
N2477       N  0.78340040  0.86753258  0.18942335    -0.43600
N2478       N  0.76179583  0.78834650  0.07839684    -0.44000
N2479       N  0.77787872  0.85969855  0.01563184    -0.41400
N2480       N  0.83816105  0.80203318  0.12744847    -0.42800
H2481       H  0.84476516  0.80704324  0.06756362     0.13400
H2482       H  0.77479985  0.85615221  0.07473405     0.09900
H2483       H  0.80129822  0.85905994  0.13324545     0.10900
H2484       H  0.74116248  0.79708313  0.13402337     0.16700
C2485       C  0.81816276  0.80288621  0.92423298    -0.01500
C2486       C  0.79362614  0.79972771  0.92295647     0.07100
C2487       C  0.78026665  0.80155049  0.94330144    -0.07400
C2488       C  0.79088247  0.80607199  0.96472358     0.04600
C2489       C  0.81542535  0.80912676  0.96614550    -0.14700
C2490       C  0.82888319  0.80746209  0.94579551    -0.08000
C2491       C  0.78129259  0.79500208  0.90061268     0.05500
C2492       C  0.78588293  0.77478209  0.88840028    -0.09100
C2493       C  0.77507717  0.77045778  0.86682672     0.00500
C2494       C  0.75911446  0.78646518  0.85735360     0.00400
C2495       C  0.75363521  0.80596496  0.87036581    -0.12700
C2496       C  0.76472650  0.81048639  0.89152001     0.00800
C2497       C  0.78186924  0.75034307  0.85421582     0.40100
C2498       C  0.75995124  0.83195712  0.90273526     0.36700
C2499       C  0.83258684  0.80146390  0.90366241     0.36500
C2500       C  0.77630723  0.80641630  0.98527779     0.37200
N2501       N  0.78745071  0.73420779  0.84418520    -0.43600
N2502       N  0.75618198  0.84924049  0.91158265    -0.44000
N2503       N  0.76468330  0.80649963  0.00177981    -0.41400
N2504       N  0.84402716  0.80025040  0.88709538    -0.42800
H2505       H  0.84777777  0.80907716  0.94687557     0.13400
H2506       H  0.76144897  0.79899604  0.94248769     0.09900
H2507       H  0.79837801  0.76264201  0.89547640     0.10900
H2508       H  0.74144227  0.81845288  0.86335760     0.16700
C2509       C  0.86812671  0.93299522  0.00333140    -0.01500
C2510       C  0.87480284  0.91255199  0.99246778     0.07100
C2511       C  0.89597812  0.91199343  0.98024463    -0.07400
C2512       C  0.91122491  0.93090675  0.98001549     0.04600
C2513       C  0.90569507  0.95070445  0.99288226    -0.14700
C2514       C  0.88359764  0.95182444  0.00360163    -0.08000
C2515       C  0.86148869  0.89079529  0.99591169     0.05500
C2516       C  0.84183260  0.88589366  0.98210554    -0.09100
C2517       C  0.82953217  0.86500547  0.98474997     0.00500
C2518       C  0.83702714  0.84854385  0.00147151     0.00400
C2519       C  0.85681578  0.85376588  0.01518063    -0.12700
C2520       C  0.86885132  0.87457560  0.01267703     0.00800
C2521       C  0.80902492  0.86154218  0.97056714     0.40100
C2522       C  0.88877256  0.87893513  0.02758318     0.36700
C2523       C  0.84580097  0.93473637  0.01487027     0.36500
C2524       C  0.93213502  0.92953724  0.96602198     0.37200
N2525       N  0.79256566  0.85947823  0.95897332    -0.43600
N2526       N  0.90469664  0.88241947  0.03955871    -0.44000
N2527       N  0.94866726  0.92815056  0.95451962    -0.41400
N2528       N  0.82778799  0.93618530  0.02391389    -0.42800
H2529       H  0.87875780  0.96706212  0.01300903     0.13400
H2530       H  0.90086920  0.89646527  0.97133992     0.09900
H2531       H  0.83611642  0.89842805  0.96923045     0.10900
H2532       H  0.86311681  0.84133058  0.02785716     0.16700
loop_ 
_geom_bond_atom_site_label_1 
_geom_bond_atom_site_label_2 
_geom_bond_distance 
_geom_bond_site_symmetry_2 
_ccdc_geom_bond_type 
N1            C5   1.366   1_554  A
N1            C2   1.363       .  A
N1         C2518   1.453       .  S
C2            C3   1.379       .  A
C2         C2465   1.490       .  S
C3            C4   1.366       .  A
C3            H6   1.082       .  S
C4            C5   1.383   1_554  A
C4            H7   1.083   1_554  S
C5         C2489   1.481       .  S
N8           C12   1.362       .  A
N8            C9   1.362   1_556  A
N8         C2441   1.451   1_556  S
C9           C10   1.378       .  A
C9         C2398   1.480       .  S
C10          C11   1.365   1_554  A
C10          H13   1.082       .  S
C11          C12   1.383       .  A
C11          H14   1.083       .  S
C12        C2422   1.479       .  S
N15          C19   1.357   1_554  A
N15          C16   1.356       .  A
N15        C2374   1.444       .  S
C16          C17   1.379       .  A
C16        C2321   1.479       .  S
C17          C18   1.370       .  A
C17          H20   1.082       .  S
C18          C19   1.384   1_554  A
C18          H21   1.083   1_554  S
C19        C2345   1.475       .  S
N22          C26   1.357       .  A
N22          C23   1.352       .  A
N22        C2297   1.441       .  S
C23          C24   1.380       .  A
C23        C2273   1.471       .  S
C24          C25   1.370       .  A
C24          H27   1.082       .  S
C25          C26   1.383       .  A
C25          H28   1.082       .  S
C26        C2249   1.475       .  S
N29          C33   1.361   1_655  A
N29          C30   1.365       .  A
N29        C2225   1.458       .  S
C30          C31   1.385       .  A
C30        C2182   1.485       .  S
C31          C32   1.368       .  A
C31          H34   1.083       .  S
C32          C33   1.377   1_655  A
C32          H35   1.082   1_655  S
C33        C2201   1.484       .  S
N36          C40   1.361       .  A
N36          C37   1.360       .  A
N36        C2153   1.444       .  S
C37          C38   1.379       .  A
C37        C2105   1.481       .  S
C38          C39   1.370       .  A
C38          H41   1.082       .  S
C39          C40   1.382       .  A
C39          H42   1.082       .  S
C40        C2129   1.480   1_655  S
N43          C47   1.355       .  A
N43          C44   1.354       .  A
N43        C2086   1.441       .  S
C44          C45   1.381       .  A
C44        C2062   1.474       .  S
C45          C46   1.372       .  A
C45          H48   1.082       .  S
C46          C47   1.383       .  A
C46          H49   1.082       .  S
C47        C2038   1.478   1_545  S
N50          C54   1.367       .  A
N50          C51   1.368       .  A
N50        C2014   1.462       .  S
C51          C52   1.383       .  A
C51        C1985   1.499       .  S
C52          C53   1.363       .  A
C52          H55   1.082       .  S
C53          C54   1.381       .  A
C53          H56   1.083       .  S
C54        C1966   1.484   1_655  S
N57          C61   1.363       .  A
N57          C58   1.356       .  A
N57        C1942   1.448       .  S
C58          C59   1.378       .  A
C58        C1918   1.474       .  S
C59          C60   1.366       .  A
C59          H62   1.082       .  S
C60          C61   1.383       .  A
C60          H63   1.082       .  S
C61        C1894   1.482   1_545  S
N64          C68   1.364       .  A
N64          C65   1.360       .  A
N64        C1817   1.449       .  S
C65          C66   1.380       .  A
C65        C1841   1.482       .  S
C66          C67   1.367       .  A
C66          H69   1.082       .  S
C67          C68   1.383       .  A
C67          H70   1.082       .  S
C68        C1865   1.490   1_655  S
Zr71         O72   2.439       .  S
Zr71         O73   2.425       .  S
Zr71         O74   2.396       .  S
Zr71         O77   2.386       .  S
Zr71         O79   2.375       .  S
Zr71         O80   2.376       .  S
Zr71         O81   2.397       .  S
Zr71         O82   2.394       .  S
O72         H128   0.990       .  S
O72         H136   0.990       .  S
O73          C93   1.281       .  A
O74          C95   1.277       .  A
O75         Zr85   2.457       .  S
O75          C94   1.288       .  A
O76         Zr84   2.499       .  S
O76          C95   1.298       .  A
O77          C94   1.277       .  A
O78         Zr86   2.439       .  S
O78          C93   1.284       .  A
O79         Zr84   2.386       .  S
O79         Zr86   2.370       .  S
O80         Zr85   2.387       .  S
O80         Zr86   2.368       .  S
O80         H115   0.966       .  S
O81         Zr84   2.406       .  S
O81        Zr101   2.403       .  S
O81         H118   0.967       .  S
O82         Zr85   2.409       .  S
O82        Zr101   2.404       .  S
Zr83        O108   2.436       .  S
Zr83        O102   2.412       .  S
Zr83        O110   2.400       .  S
Zr83         O98   2.385       .  S
Zr83         O89   2.391       .  S
Zr83         O90   2.400       .  S
Zr83         O91   2.374       .  S
Zr83         O92   2.373       .  S
Zr84        O103   2.437       .  S
Zr84         O96   2.435       .  S
Zr84         O97   2.491       .  S
Zr84         O90   2.405       .  S
Zr84         O91   2.395       .  S
Zr85         O87   2.433       .  S
Zr85        O109   2.435       .  S
Zr85        O111   2.473       .  S
Zr85         O89   2.395       .  S
Zr85         O92   2.386       .  S
Zr86        O112   2.436       .  S
Zr86        O113   2.435       .  S
Zr86         O88   2.439       .  S
Zr86         O89   2.405       .  S
Zr86         O90   2.403       .  S
O87         H124   0.990       .  S
O88         H119   0.990       .  S
O88         H133   0.990       .  S
O90         H116   0.966       .  S
O91        Zr101   2.369       .  S
O92        Zr101   2.369       .  S
O92         H117   0.963       .  S
C93        C1745   1.474       .  S
C94        C1697   1.464       .  S
C95        C1721   1.505       .  S
O96         H132   0.990       .  S
O97          C99   1.296       .  A
O98          C99   1.276       .  A
C99        C1774   1.481       .  S
O100       Zr101   2.439       .  S
O100        H129   0.990       .  S
Zr101       O104   2.437       .  S
Zr101       O105   2.439       .  S
Zr101       O106   2.446       .  S
O102        C107   1.281       .  A
O103        H120   0.990       .  S
O103        H135   0.990       .  S
O104        H121   0.990       .  S
O105        H125   0.990       .  S
O105        H134   0.990       .  S
O106        C107   1.286       .  A
C107       C1798   1.496       .  S
O108        H127   0.990       .  S
O108        H131   0.990       .  S
O109        H123   0.990       .  S
O109        H130   0.990       .  S
O110        C114   1.280       .  A
O111        C114   1.292       .  A
O112        H122   0.990       .  S
O113        H126   0.990       .  S
C114       C1870   1.481       .  S
N137        C141   1.359       .  A
N137        C138   1.355       .  A
N137       C1654   1.441       .  S
C138        C139   1.380       .  A
C138       C1793   1.474       .  S
C139        C140   1.368       .  A
C139        H142   1.082       .  S
C140        C141   1.381       .  A
C140        H143   1.082       .  S
C141       C1673   1.477   1_545  S
Zr144       O145   2.437       .  S
Zr144       O146   2.417       .  S
Zr144       O147   2.412       .  S
Zr144       O150   2.399       .  S
Zr144       O152   2.375       .  S
Zr144       O153   2.378       .  S
Zr144       O154   2.400       .  S
Zr144       O155   2.399       .  S
O145        H201   0.991       .  S
O145        H209   0.990       .  S
O146        C166   1.282       .  A
O147        C168   1.281       .  A
O148       Zr158   2.486       .  S
O148        C167   1.295       .  A
O149       Zr157   2.456       .  S
O149        C168   1.288       .  A
O150        C167   1.280       .  A
O151       Zr159   2.444       .  S
O151        C166   1.286       .  A
O152       Zr157   2.398       .  S
O152       Zr159   2.371       .  S
O153       Zr158   2.385       .  S
O153       Zr159   2.372       .  S
O153        H188   0.962       .  S
O154       Zr157   2.405       .  S
O154       Zr174   2.406       .  S
O154        H191   0.963       .  S
O155       Zr158   2.403       .  S
O155       Zr174   2.399       .  S
Zr156       O181   2.436       .  S
Zr156       O175   2.417       .  S
Zr156       O183   2.388       .  S
Zr156       O171   2.398       .  S
Zr156       O162   2.390       .  S
Zr156       O163   2.396       .  S
Zr156       O164   2.369       .  S
Zr156       O165   2.380       .  S
Zr157       O176   2.439       .  S
Zr157       O169   2.434       .  S
Zr157       O170   2.476       .  S
Zr157       O163   2.402       .  S
Zr157       O164   2.381       .  S
Zr158       O160   2.435       .  S
Zr158       O182   2.437       .  S
Zr158       O184   2.480       .  S
Zr158       O162   2.403       .  S
Zr158       O165   2.389       .  S
Zr159       O185   2.433       .  S
Zr159       O186   2.436       .  S
Zr159       O161   2.436       .  S
Zr159       O162   2.395       .  S
Zr159       O163   2.409       .  S
O160        H197   0.990       .  S
O161        H192   0.990       .  S
O161        H206   0.990       .  S
O163        H189   0.965       .  S
O164       Zr174   2.365       .  S
O165       Zr174   2.376       .  S
O165        H190   0.966       .  S
C166       C1577   1.493       .  S
C167       C1601   1.492       .  S
C168       C1625   1.475       .  S
O169        H205   0.990       .  S
O170        C172   1.292       .  A
O171        C172   1.279       .  A
C172       C1678   1.492       .  S
O173       Zr174   2.436       .  S
O173        H202   0.990       .  S
Zr174       O177   2.436       .  S
Zr174       O178   2.436       .  S
Zr174       O179   2.436       .  S
O175        C180   1.280       .  A
O176        H193   0.990       .  S
O176        H208   0.990       .  S
O177        H194   0.991       .  S
O178        H198   0.990       .  S
O178        H207   0.990       .  S
O179        C180   1.286       .  A
C180       C2326   1.490       .  S
O181        H200   0.990       .  S
O181        H204   0.990       .  S
O182        H196   0.990       .  S
O182        H203   0.990       .  S
O183        C187   1.278       .  A
O184        C187   1.293       .  A
O185        H195   0.990       .  S
O186        H199   0.989       .  S
C187       C1961   1.483       .  S
Zr210       O211   2.438       .  S
Zr210       O212   2.422       .  S
Zr210       O213   2.381       .  S
Zr210       O216   2.373       .  S
Zr210       O218   2.375       .  S
Zr210       O219   2.377       .  S
Zr210       O220   2.389       .  S
Zr210       O221   2.391       .  S
O211        H267   0.990       .  S
O211        H275   0.990       .  S
O212        C232   1.281       .  A
O213        C234   1.275       .  A
O214       Zr224   2.491       .  S
O214        C233   1.296       .  A
O215       Zr223   2.485       .  S
O215        C234   1.295       .  A
O216        C233   1.276       .  A
O217       Zr225   2.447       .  S
O217        C232   1.288       .  A
O218       Zr223   2.390       .  S
O218       Zr225   2.371       .  S
O219       Zr224   2.391       .  S
O219       Zr225   2.367       .  S
O219        H254   0.965       .  S
O220       Zr223   2.403       .  S
O220       Zr240   2.400       .  S
O220        H257   0.969       .  S
O221       Zr224   2.402       .  S
O221       Zr240   2.399       .  S
Zr222       O247   2.435       .  S
Zr222       O241   2.431       .  S
Zr222       O249   2.391       .  S
Zr222       O237   2.387       .  S
Zr222       O228   2.396       .  S
Zr222       O229   2.395       .  S
Zr222       O230   2.368       .  S
Zr222       O231   2.373       .  S
Zr223       O242   2.435       .  S
Zr223       O235   2.435       .  S
Zr223       O236   2.480       .  S
Zr223       O229   2.398       .  S
Zr223       O230   2.394       .  S
Zr224       O226   2.435       .  S
Zr224       O248   2.437       .  S
Zr224       O250   2.490       .  S
Zr224       O228   2.403       .  S
Zr224       O231   2.396       .  S
Zr225       O251   2.436       .  S
Zr225       O252   2.436       .  S
Zr225       O227   2.437       .  S
Zr225       O228   2.405       .  S
Zr225       O229   2.399       .  S
O226        H263   0.990       .  S
O227        H258   0.990       .  S
O227        H272   0.990       .  S
O229        H255   0.966       .  S
O230       Zr240   2.374       .  S
O231       Zr240   2.376       .  S
O231        H256   0.965       .  S
C232       C1913   1.495       .  S
C233       C2393   1.483       .  S
C234       C1846   1.487       .  S
O235        H271   0.990       .  S
O236        C238   1.293       .  A
O237        C238   1.277       .  A
C238       C1505   1.479       .  S
O239       Zr240   2.438       .  S
O239        H268   0.990       .  S
Zr240       O243   2.436       .  S
Zr240       O244   2.441       .  S
Zr240       O245   2.435       .  S
O241        C246   1.285       .  A
O242        H259   0.990       .  S
O242        H274   0.990       .  S
O243        H260   0.990       .  S
O244        H264   0.990       .  S
O244        H273   0.990       .  S
O245        C246   1.283       .  A
C246       C1534   1.501       .  S
O247        H266   0.989       .  S
O247        H270   0.990       .  S
O248        H262   0.990       .  S
O248        H269   0.990       .  S
O249        C253   1.278       .  A
O250        C253   1.296       .  A
O251        H261   0.990       .  S
O252        H265   0.990       .  S
C253       C1558   1.490       .  S
Zr276       O277   2.437       .  S
Zr276       O278   2.426       .  S
Zr276       O279   2.396       .  S
Zr276       O282   2.388       .  S
Zr276       O284   2.375       .  S
Zr276       O285   2.378       .  S
Zr276       O286   2.398       .  S
Zr276       O287   2.397       .  S
O277        H333   0.991       .  S
O277        H341   0.989       .  S
O278        C298   1.282       .  A
O279        C300   1.277       .  A
O280       Zr290   2.499       .  S
O280        C299   1.298       .  A
O281       Zr289   2.464       .  S
O281        C300   1.290       .  A
O282        C299   1.278       .  A
O283       Zr291   2.430       .  S
O283        C298   1.285       .  A
O284       Zr289   2.396       .  S
O284       Zr291   2.373       .  S
O285       Zr290   2.391       .  S
O285       Zr291   2.374       .  S
O285        H320   0.965       .  S
O286       Zr289   2.408       .  S
O286       Zr306   2.399       .  S
O286        H323   0.965       .  S
O287       Zr290   2.406       .  S
O287       Zr306   2.403       .  S
Zr288       O313   2.436       .  S
Zr288       O307   2.405       .  S
Zr288       O315   2.382       .  S
Zr288       O303   2.391       .  S
Zr288       O294   2.393       .  S
Zr288       O295   2.387       .  S
Zr288       O296   2.367       .  S
Zr288       O297   2.380       .  S
Zr289       O308   2.438       .  S
Zr289       O301   2.435       .  S
Zr289       O302   2.482       .  S
Zr289       O295   2.396       .  S
Zr289       O296   2.378       .  S
Zr290       O292   2.434       .  S
Zr290       O314   2.434       .  S
Zr290       O316   2.491       .  S
Zr290       O294   2.405       .  S
Zr290       O297   2.397       .  S
Zr291       O317   2.434       .  S
Zr291       O318   2.438       .  S
Zr291       O293   2.437       .  S
Zr291       O294   2.403       .  S
Zr291       O295   2.397       .  S
O292        H329   0.990       .  S
O293        H324   0.990       .  S
O293        H338   0.990       .  S
O295        H321   0.969       .  S
O296       Zr306   2.364       .  S
O297       Zr306   2.366       .  S
O297        H322   0.965       .  S
C298       C1433   1.484       .  S
C299       C1457   1.503       .  S
C300       C1481   1.478       .  S
O301        H337   0.990       .  S
O302        C304   1.295       .  A
O303        C304   1.279       .  A
C304       C1990   1.501       .  S
O305       Zr306   2.435       .  S
O305        H334   0.990       .  S
Zr306       O309   2.434       .  S
Zr306       O310   2.438       .  S
Zr306       O311   2.448       .  S
O307        C312   1.278       .  A
O308        H325   0.990       .  S
O308        H340   0.990       .  S
O309        H326   0.990       .  S
O310        H330   0.990       .  S
O310        H339   0.990       .  S
O311        C312   1.289       .  A
C312       C2470   1.495       .  S
O313        H332   0.990       .  S
O313        H336   0.990       .  S
O314        H328   0.990       .  S
O314        H335   0.990       .  S
O315        C319   1.276       .  A
O316        C319   1.296       .  A
O317        H327   0.990       .  S
O318        H331   0.990       .  S
C319       C1889   1.476       .  S
N342        C346   1.361   1_554  A
N342        C343   1.365       .  A
N342       C1385   1.450       .  S
C343        C344   1.381       .  A
C343       C1769   1.487       .  S
C344        C345   1.365   1_554  A
C344        H347   1.083       .  S
C345        C346   1.381       .  A
C345        H348   1.083       .  S
C346       C1409   1.482       .  S
Zr349       O350   2.433       .  S
Zr349       O351   2.427       .  S
Zr349       O352   2.407       .  S
Zr349       O355   2.384       .  S
Zr349       O357   2.372       .  S
Zr349       O358   2.376       .  S
Zr349       O359   2.397       .  S
Zr349       O360   2.396       .  S
O350        H406   0.990       .  S
O350        H414   0.989       .  S
O351        C371   1.284       .  A
O352        C373   1.280       .  A
O353       Zr363   2.482       .  S
O353        C372   1.293       .  A
O354       Zr362   2.468       .  S
O354        C373   1.291       .  A
O355        C372   1.276       .  A
O356       Zr364   2.432       .  S
O356        C371   1.283       .  A
O357       Zr362   2.394       .  S
O357       Zr364   2.376       .  S
O358       Zr363   2.389       .  S
O358       Zr364   2.372       .  S
O358        H393   0.966       .  S
O359       Zr362   2.400       .  S
O359       Zr379   2.401       .  S
O359        H396   0.965       .  S
O360       Zr363   2.396       .  S
O360       Zr379   2.400       .  S
Zr361       O386   2.437       .  S
Zr361       O380   2.419       .  S
Zr361       O388   2.401       .  S
Zr361       O376   2.399       .  S
Zr361       O367   2.395       .  S
Zr361       O368   2.397       .  S
Zr361       O369   2.374       .  S
Zr361       O370   2.378       .  S
Zr362       O381   2.437       .  S
Zr362       O374   2.434       .  S
Zr362       O375   2.465       .  S
Zr362       O368   2.401       .  S
Zr362       O369   2.395       .  S
Zr363       O365   2.434       .  S
Zr363       O387   2.435       .  S
Zr363       O389   2.481       .  S
Zr363       O367   2.406       .  S
Zr363       O370   2.387       .  S
Zr364       O390   2.435       .  S
Zr364       O391   2.436       .  S
Zr364       O366   2.438       .  S
Zr364       O367   2.403       .  S
Zr364       O368   2.399       .  S
O365        H402   0.990       .  S
O366        H397   0.990       .  S
O366        H411   0.990       .  S
O368        H394   0.967       .  S
O369       Zr379   2.371       .  S
O370       Zr379   2.370       .  S
O370        H395   0.966       .  S
C371       C2057   1.494       .  S
C372       C1414   1.476       .  S
C373       C2206   1.486       .  S
O374        H410   0.990       .  S
O375        C377   1.290       .  A
O376        C377   1.280       .  A
C377       C1313   1.477       .  S
O378       Zr379   2.439       .  S
O378        H407   0.990       .  S
Zr379       O382   2.437       .  S
Zr379       O383   2.438       .  S
Zr379       O384   2.440       .  S
O380        C385   1.282       .  A
O381        H398   0.990       .  S
O381        H413   0.990       .  S
O382        H399   0.990       .  S
O383        H403   0.990       .  S
O383        H412   0.990       .  S
O384        C385   1.285       .  A
C385       C1337   1.494       .  S
O386        H405   0.990       .  S
O386        H409   0.990       .  S
O387        H401   0.990       .  S
O387        H408   0.990       .  S
O388        C392   1.279       .  A
O389        C392   1.294       .  A
O390        H400   0.990       .  S
O391        H404   0.990       .  S
C392       C1361   1.481       .  S
Zr415       O416   2.437       .  S
Zr415       O417   2.411       .  S
Zr415       O418   2.394       .  S
Zr415       O421   2.395       .  S
Zr415       O423   2.376       .  S
Zr415       O424   2.377       .  S
Zr415       O425   2.397       .  S
Zr415       O426   2.393       .  S
O416        H472   0.990       .  S
O416        H480   0.990       .  S
O417        C437   1.281       .  A
O418        C439   1.278       .  A
O419       Zr429   2.488       .  S
O419        C438   1.295       .  A
O420       Zr428   2.479       .  S
O420        C439   1.294       .  A
O421        C438   1.279       .  A
O422       Zr430   2.438       .  S
O422        C437   1.286       .  A
O423       Zr428   2.390       .  S
O423       Zr430   2.369       .  S
O424       Zr429   2.388       .  S
O424       Zr430   2.372       .  S
O424        H459   0.965       .  S
O425       Zr428   2.404       .  S
O425       Zr445   2.399       .  S
O425        H462   0.968       .  S
O426       Zr429   2.400       .  S
O426       Zr445   2.405       .  S
Zr427       O452   2.440       .  S
Zr427       O446   2.420       .  S
Zr427       O454   2.381       .  S
Zr427       O442   2.382       .  S
Zr427       O433   2.392       .  S
Zr427       O434   2.395       .  S
Zr427       O435   2.368       .  S
Zr427       O436   2.375       .  S
Zr428       O447   2.434       .  S
Zr428       O440   2.433       .  S
Zr428       O441   2.494       .  S
Zr428       O434   2.403       .  S
Zr428       O435   2.386       .  S
Zr429       O431   2.433       .  S
Zr429       O453   2.437       .  S
Zr429       O455   2.475       .  S
Zr429       O433   2.406       .  S
Zr429       O436   2.397       .  S
Zr430       O456   2.434       .  S
Zr430       O457   2.436       .  S
Zr430       O432   2.435       .  S
Zr430       O433   2.402       .  S
Zr430       O434   2.399       .  S
O431        H468   0.990       .  S
O432        H463   0.990       .  S
O432        H477   0.990       .  S
O434        H460   0.966       .  S
O435       Zr445   2.367       .  S
O436       Zr445   2.371       .  S
O436        H461   0.966       .  S
C437       C2033   1.482       .  S
C438       C2134   1.486       .  S
C439       C2350   1.484       .  S
O440        H476   0.989       .  S
O441        C443   1.296       .  A
O442        C443   1.276       .  A
C443       C1270   1.488       .  S
O444       Zr445   2.435       .  S
O444        H473   0.990       .  S
Zr445       O448   2.434       .  S
Zr445       O449   2.438       .  S
Zr445       O450   2.437       .  S
O446        C451   1.282       .  A
O447        H464   0.990       .  S
O447        H479   0.990       .  S
O448        H465   0.990       .  S
O449        H469   0.990       .  S
O449        H478   0.990       .  S
O450        C451   1.284       .  A
C451       C1289   1.493       .  S
O452        H471   0.990       .  S
O452        H475   0.990       .  S
O453        H467   0.990       .  S
O453        H474   0.990       .  S
O454        C458   1.277       .  A
O455        C458   1.293       .  A
O456        H466   0.990       .  S
O457        H470   0.989       .  S
C458       C1241   1.486       .  S
Zr481       O482   2.432       .  S
Zr481       O483   2.411       .  S
Zr481       O484   2.396       .  S
Zr481       O487   2.393       .  S
Zr481       O489   2.376       .  S
Zr481       O490   2.379       .  S
Zr481       O491   2.396       .  S
Zr481       O492   2.392       .  S
O482        H538   0.990       .  S
O482        H546   0.989       .  S
O483        C503   1.280       .  A
O484        C505   1.279       .  A
O485       Zr495   2.498       .  S
O485        C504   1.297       .  A
O486       Zr494   2.491       .  S
O486        C505   1.296       .  A
O487        C504   1.278       .  A
O488       Zr496   2.438       .  S
O488        C503   1.286       .  A
O489       Zr494   2.390       .  S
O489       Zr496   2.370       .  S
O490       Zr495   2.388       .  S
O490       Zr496   2.363       .  S
O490        H525   0.964       .  S
O491       Zr494   2.401       .  S
O491       Zr511   2.396       .  S
O491        H528   0.968       .  S
O492       Zr495   2.403       .  S
O492       Zr511   2.404       .  S
Zr493       O518   2.435       .  S
Zr493       O512   2.433       .  S
Zr493       O520   2.393       .  S
Zr493       O508   2.390       .  S
Zr493       O499   2.395       .  S
Zr493       O500   2.402       .  S
Zr493       O501   2.373       .  S
Zr493       O502   2.375       .  S
Zr494       O513   2.435       .  S
Zr494       O506   2.436       .  S
Zr494       O507   2.485       .  S
Zr494       O500   2.404       .  S
Zr494       O501   2.389       .  S
Zr495       O497   2.434       .  S
Zr495       O519   2.438       .  S
Zr495       O521   2.485       .  S
Zr495       O499   2.405       .  S
Zr495       O502   2.393       .  S
Zr496       O522   2.438       .  S
Zr496       O523   2.437       .  S
Zr496       O498   2.437       .  S
Zr496       O499   2.405       .  S
Zr496       O500   2.402       .  S
O497        H534   0.990       .  S
O498        H529   0.990       .  S
O498        H543   0.990       .  S
O500        H526   0.971       .  S
O501       Zr511   2.369       .  S
O502       Zr511   2.368       .  S
O502        H527   0.965       .  S
C503       C2278   1.485       .  S
C504       C2177   1.486       .  S
C505       C2417   1.492       .  S
O506        H542   0.990       .  S
O507        C509   1.295       .  A
O508        C509   1.278       .  A
C509       C1193   1.491       .  S
O510       Zr511   2.438       .  S
O510        H539   0.990       .  S
Zr511       O514   2.436       .  S
Zr511       O515   2.438       .  S
Zr511       O516   2.433       .  S
O512        C517   1.284       .  A
O513        H530   0.990       .  S
O513        H545   0.990       .  S
O514        H531   0.990       .  S
O515        H535   0.990       .  S
O515        H544   0.990       .  S
O516        C517   1.286       .  A
C517       C1217   1.500       .  S
O518        H537   0.990       .  S
O518        H541   0.990       .  S
O519        H533   0.989       .  S
O519        H540   0.990       .  S
O520        C524   1.278       .  A
O521        C524   1.294       .  A
O522        H532   0.990       .  S
O523        H536   0.990       .  S
C524       C1169   1.478       .  S
Zr547       O548   2.437       .  S
Zr547       O549   2.423       .  S
Zr547       O550   2.400       .  S
Zr547       O553   2.401       .  S
Zr547       O555   2.375       .  S
Zr547       O556   2.376       .  S
Zr547       O557   2.401       .  S
Zr547       O558   2.399       .  S
O548        H604   0.991       .  S
O548        H612   0.990       .  S
O549        C569   1.282       .  A
O550        C571   1.281       .  A
O551       Zr561   2.476       .  S
O551        C570   1.293       .  A
O552       Zr560   2.461       .  S
O552        C571   1.290       .  A
O553        C570   1.280       .  A
O554       Zr562   2.449       .  S
O554        C569   1.288       .  A
O555       Zr560   2.395       .  S
O555       Zr562   2.373       .  S
O556       Zr561   2.392       .  S
O556       Zr562   2.359       .  S
O556        H591   0.964       .  S
O557       Zr560   2.408       .  S
O557       Zr577   2.399       .  S
O557        H594   0.968       .  S
O558       Zr561   2.405       .  S
O558       Zr577   2.410       .  S
Zr559       O584   2.437       .  S
Zr559       O578   2.411       .  S
Zr559       O586   2.390       .  S
Zr559       O574   2.387       .  S
Zr559       O565   2.393       .  S
Zr559       O566   2.392       .  S
Zr559       O567   2.371       .  S
Zr559       O568   2.377       .  S
Zr560       O579   2.435       .  S
Zr560       O572   2.434       .  S
Zr560       O573   2.483       .  S
Zr560       O566   2.396       .  S
Zr560       O567   2.383       .  S
Zr561       O563   2.434       .  S
Zr561       O585   2.436       .  S
Zr561       O587   2.479       .  S
Zr561       O565   2.404       .  S
Zr561       O568   2.390       .  S
Zr562       O588   2.437       .  S
Zr562       O589   2.435       .  S
Zr562       O564   2.436       .  S
Zr562       O565   2.409       .  S
Zr562       O566   2.398       .  S
O563        H600   0.990       .  S
O564        H595   0.990       .  S
O564        H609   0.990       .  S
O566        H592   0.964       .  S
O567       Zr577   2.367       .  S
O568       Zr577   2.355       .  S
O568        H593   0.966       .  S
C569       C2110   1.492       .  S
C570       C2254   1.481       .  S
C571       C2494   1.486       .  S
O572        H608   0.990       .  S
O573        C575   1.294       .  A
O574        C575   1.278       .  A
C575       C1121   1.492       .  S
O576       Zr577   2.434       .  S
O576        H605   0.990       .  S
Zr577       O580   2.434       .  S
Zr577       O581   2.439       .  S
Zr577       O582   2.456       .  S
O578        C583   1.279       .  A
O579        H596   0.990       .  S
O579        H611   0.990       .  S
O580        H597   0.990       .  S
O581        H601   0.990       .  S
O581        H610   0.990       .  S
O582        C583   1.289       .  A
C583       C1145   1.500       .  S
O584        H603   0.990       .  S
O584        H607   0.990       .  S
O585        H599   0.990       .  S
O585        H606   0.990       .  S
O586        C590   1.278       .  A
O587        C590   1.293       .  A
O588        H598   0.990       .  S
O589        H602   0.990       .  S
C590       C1102   1.474       .  S
N613        C617   1.363       .  A
N613        C614   1.363       .  A
N613       C1073   1.449       .  S
C614        C615   1.381       .  A
C614       C1150   1.483       .  S
C615        C616   1.365       .  A
C615        H618   1.083       .  S
C616        C617   1.380       .  A
C616        H619   1.082       .  S
C617       C1265   1.480       .  S
N620        C624   1.355       .  A
N620        C621   1.352       .  A
N620       C1049   1.438       .  S
C621        C622   1.379       .  A
C621       C1342   1.470       .  S
C622        C623   1.371       .  A
C622        H625   1.082       .  S
C623        C624   1.383       .  A
C623        H626   1.082       .  S
C624       C1294   1.477       .  S
N627        C631   1.363       .  A
N627        C628   1.361       .  A
N627       C1025   1.454       .  S
C628        C629   1.383       .  A
C628       C1198   1.486       .  S
C629        C630   1.369       .  A
C629        H632   1.083       .  S
C630        C631   1.382       .  A
C630        H633   1.083       .  S
C631       C1366   1.488       .  S
N634        C638   1.364       .  A
N634        C635   1.360       .  A
N634       C1006   1.444       .  S
C635        C636   1.379       .  A
C635       C1222   1.480       .  S
C636        C637   1.369       .  A
C636        H639   1.082       .  S
C637        C638   1.382       .  A
C637        H640   1.082       .  S
C638       C1126   1.485       .  S
N641        C645   1.366       .  A
N641        C642   1.364       .  A
N641        C977   1.455       .  S
C642        C643   1.378       .  A
C642       C1553   1.482       .  S
C643        C644   1.364       .  A
C643        H646   1.083       .  S
C644        C645   1.382       .  A
C644        H647   1.083       .  S
C645       C1726   1.484       .  S
N648        C652   1.360       .  A
N648        C649   1.359       .  A
N648        C953   1.444       .  S
C649        C650   1.380       .  A
C649       C1529   1.484       .  S
C650        C651   1.369       .  A
C650        H653   1.082       .  S
C651        C652   1.383       .  A
C651        H654   1.082       .  S
C652       C1486   1.480       .  S
N655        C659   1.365       .  A
N655        C656   1.363       .  A
N655        C934   1.453       .  S
C656        C657   1.379       .  A
C656       C1462   1.483       .  S
C657        C658   1.363       .  A
C657        H660   1.083       .  S
C658        C659   1.384       .  A
C658        H661   1.082       .  S
C659       C1630   1.487       .  S
N662        C666   1.361       .  A
N662        C663   1.359       .  A
N662        C905   1.447       .  S
C663        C664   1.381       .  A
C663       C1750   1.477       .  S
C664        C665   1.368       .  A
C664        H667   1.083       .  S
C665        C666   1.380       .  A
C665        H668   1.082       .  S
C666       C1606   1.481       .  S
N669        C673   1.362       .  A
N669        C670   1.362       .  A
N669        C881   1.447       .  S
C670        C671   1.380       .  A
C670       C1438   1.479       .  S
C671        C672   1.366       .  A
C671        H674   1.082       .  S
C672        C673   1.381       .  A
C672        H675   1.083       .  S
C673       C1097   1.478       .  S
N676        C680   1.364       .  A
N676        C677   1.363       .  A
N676        C857   1.452       .  S
C677        C678   1.378       .  A
C677       C1510   1.478       .  S
C678        C679   1.362       .  A
C678        H681   1.082       .  S
C679        C680   1.382       .  A
C679        H682   1.083       .  S
C680       C1174   1.484       .  S
N683        C687   1.356       .  A
N683        C684   1.359       .  A
N683        C833   1.444       .  S
C684        C685   1.381       .  A
C684       C1582   1.478       .  S
C685        C686   1.366       .  A
C685        H688   1.082       .  S
C686        C687   1.381       .  A
C686        H689   1.083       .  S
C687       C1246   1.470       .  S
N690        C694   1.363       .  A
N690        C691   1.360       .  A
N690        C809   1.449       .  S
C691        C692   1.381       .  A
C691       C1702   1.472       .  S
C692        C693   1.361       .  A
C692        H695   1.083       .  S
C693        C694   1.379       .  A
C693        H696   1.083       .  S
C694       C1318   1.481       .  S
O697       Zr733   2.454   1_566  S
O697        C708   1.295       .  A
O698       Zr732   2.439   1_565  S
O698        C709   1.293       .  A
O699       Zr705   2.452   1_556  S
O699        C710   1.295       .  A
O700       Zr705   2.456       .  S
O700        C711   1.295       .  A
O701       Zr735   2.474   1_565  S
O701        C711   1.298       .  A
O702       Zr734   2.432   1_565  S
O702        C710   1.291       .  A
O703       Zr705   2.451   1_455  S
O703        C709   1.294       .  A
O704       Zr705   2.438   1_556  S
O704        C708   1.293       .  A
Zr705       O706   2.344   1_665  S
Zr705       O707   2.344   1_564  S
Zr705       O715   2.353   1_565  S
Zr705       O713   2.339   1_664  S
O706       Zr732   2.343       .  S
O706       Zr735   2.342   1_455  S
O707       Zr733   2.339   1_556  S
O707       Zr734   2.335       .  S
C708       C2513   1.489       .  S
C709       C2369   1.492   1_554  S
C710       C2158   1.488       .  S
C711       C2009   1.494       .  S
H712        O713   0.966       .  S
O713       Zr732   2.335   1_556  S
O713       Zr734   2.330   1_455  S
H714        O715   0.966   1_565  S
O715       Zr733   2.354       .  S
O715       Zr735   2.350       .  S
O716       Zr732   2.444       .  S
O716        C739   1.293       .  A
O717       Zr733   2.453       .  S
O717        C740   1.296       .  A
O718       Zr734   2.445   1_455  S
O718        C741   1.293       .  A
O719       Zr735   2.455   1_455  S
O719        C742   1.294       .  A
O720       Zr735   2.444       .  S
O720        C743   1.293       .  A
O721       Zr734   2.435       .  S
O721        C744   1.291       .  A
O722       Zr736   2.486   1_556  S
O722        C745   1.300       .  A
O723       Zr736   2.458       .  S
O723        C746   1.296       .  A
O724       Zr734   2.419       .  S
O724        C745   1.290       .  A
O725       Zr735   2.446       .  S
O725        C746   1.295       .  A
O726       Zr732   2.435   1_556  S
O726        C741   1.292       .  A
O727       Zr733   2.456   1_556  S
O727        C744   1.295       .  A
O728       Zr733   2.447       .  S
O728        C743   1.295       .  A
O729       Zr732   2.425       .  S
O729        C742   1.289       .  A
O730       Zr736   2.467   1_455  S
O730        C739   1.298       .  A
O731       Zr736   2.478       .  S
O731        C740   1.299       .  A
Zr732       O738   2.344   1_554  S
Zr732       O750   2.343       .  S
Zr733       O737   2.345       .  S
Zr733       O748   2.345   1_554  S
Zr734       O738   2.341   1_655  S
Zr734       O748   2.340       .  S
Zr735       O737   2.355       .  S
Zr735       O750   2.356   1_655  S
Zr736       O737   2.359       .  S
Zr736       O738   2.351   1_654  S
Zr736       O750   2.363   1_655  S
Zr736       O748   2.348   1_554  S
C739       C1390   1.495       .  S
C740       C2446   1.505       .  S
C741       C2081   1.481       .  S
C742       C1649   1.475       .  S
C743       C1937   1.491       .  S
C744       C2302   1.484       .  S
C745       C2230   1.502       .  S
C746       C1822   1.491       .  S
H747        O748   0.966       .  S
H749        O750   0.966       .  S
O751       Zr787   2.465       .  S
O751        C762   1.297       .  A
O752       Zr786   2.487       .  S
O752        C763   1.301       .  A
O753       Zr759   2.434       .  S
O753        C764   1.292       .  A
O754       Zr759   2.446       .  S
O754        C765   1.293       .  A
O755       Zr789   2.459       .  S
O755        C765   1.295       .  A
O756       Zr788   2.450       .  S
O756        C764   1.294       .  A
O757       Zr759   2.425       .  S
O757        C763   1.291       .  A
O758       Zr759   2.439       .  S
O758        C762   1.293       .  A
Zr759       O760   2.344       .  S
Zr759       O761   2.333       .  S
Zr759       O769   2.333       .  S
Zr759       O767   2.347       .  S
O760       Zr786   2.355       .  S
O760       Zr789   2.347       .  S
O761       Zr787   2.335       .  S
O761       Zr788   2.340       .  S
C762       C1078   1.497       .  S
C763       C1030   1.495       .  S
C764       C1054   1.483       .  S
C765       C1001   1.485       .  S
H766        O767   0.966       .  S
O767       Zr786   2.354       .  S
O767       Zr788   2.347       .  S
H768        O769   0.965       .  S
O769       Zr787   2.344       .  S
O769       Zr789   2.347       .  S
O770       Zr786   2.479       .  S
O770        C793   1.300       .  A
O771       Zr787   2.445       .  S
O771        C794   1.293       .  A
O772       Zr788   2.442       .  S
O772        C795   1.294       .  A
O773       Zr789   2.461       .  S
O773        C796   1.296       .  A
O774       Zr789   2.455       .  S
O774        C797   1.296       .  A
O775       Zr788   2.443       .  S
O775        C798   1.293       .  A
O776       Zr790   2.453       .  S
O776        C799   1.294       .  A
O777       Zr790   2.441       .  S
O777        C800   1.292       .  A
O778       Zr788   2.446       .  S
O778        C799   1.293       .  A
O779       Zr789   2.446       .  S
O779        C800   1.294       .  A
O780       Zr786   2.465       .  S
O780        C795   1.297       .  A
O781       Zr787   2.456       .  S
O781        C798   1.295       .  A
O782       Zr787   2.445       .  S
O782        C797   1.294       .  A
O783       Zr786   2.462       .  S
O783        C796   1.297       .  A
O784       Zr790   2.448       .  S
O784        C793   1.294       .  A
O785       Zr790   2.476       .  S
O785        C794   1.298       .  A
Zr786       O792   2.356       .  S
Zr786       O804   2.358       .  S
Zr787       O791   2.355       .  S
Zr787       O802   2.350       .  S
Zr788       O792   2.344       .  S
Zr788       O802   2.344       .  S
Zr789       O791   2.356       .  S
Zr789       O804   2.350       .  S
Zr790       O791   2.348       .  S
Zr790       O792   2.352       .  S
Zr790       O804   2.358       .  S
Zr790       O802   2.344       .  S
C793        C982   1.500       .  S
C794        C929   1.493       .  S
C795        C814   1.496       .  S
C796        C862   1.500       .  S
C797        C886   1.489       .  S
C798        C838   1.485       .  S
C799        C910   1.487       .  S
C800        C958   1.482       .  S
H801        O802   0.966       .  S
H803        O804   0.965       .  S
C805        C806   1.411       .  A
C805        C810   1.403       .  A
C805        C819   1.443       .  S
C806        C807   1.408       .  A
C806        C811   1.499       .  S
C807        C808   1.409       .  A
C807        H826   1.085       .  S
C808        C809   1.412       .  A
C808        C820   1.441       .  S
C809        C810   1.408       .  A
C810        H825   1.084       .  S
C811        C812   1.408       .  A
C811        C816   1.411       .  A
C812        C813   1.410       .  A
C812        H827   1.084       .  S
C813        C814   1.416       .  A
C813        C817   1.444       .  S
C814        C815   1.407       .  A
C815        C816   1.402       .  A
C815        H828   1.085       .  S
C816        C818   1.444       .  S
C817        N821   1.158       .  T
C818        N822   1.157       .  T
C819        N824   1.157       .  T
C820        N823   1.157       .  T
C829        C830   1.416       .  A
C829        C834   1.408       .  A
C829        C843   1.443       .  S
C830        C831   1.406       .  A
C830        C835   1.500       .  S
C831        C832   1.400       .  A
C831        H850   1.085       .  S
C832        C833   1.409       .  A
C832        C844   1.443       .  S
C833        C834   1.403       .  A
C834        H849   1.082       .  S
C835        C836   1.408       .  A
C835        C840   1.415       .  A
C836        C837   1.408       .  A
C836        H851   1.084       .  S
C837        C838   1.413       .  A
C837        C841   1.444       .  S
C838        C839   1.402       .  A
C839        C840   1.401       .  A
C839        H852   1.085       .  S
C840        C842   1.444       .  S
C841        N845   1.157       .  T
C842        N846   1.157       .  T
C843        N848   1.157       .  T
C844        N847   1.157       .  T
C853        C854   1.411       .  A
C853        C858   1.399       .  A
C853        C867   1.444       .  S
C854        C855   1.411       .  A
C854        C859   1.502       .  S
C855        C856   1.414       .  A
C855        H874   1.084       .  S
C856        C857   1.411       .  A
C856        C868   1.441       .  S
C857        C858   1.407       .  A
C858        H873   1.084       .  S
C859        C860   1.405       .  A
C859        C864   1.412       .  A
C860        C861   1.405       .  A
C860        H875   1.085       .  S
C861        C862   1.416       .  A
C861        C865   1.444       .  S
C862        C863   1.410       .  A
C863        C864   1.411       .  A
C863        H876   1.084       .  S
C864        C866   1.443       .  S
C865        N869   1.157       .  T
C866        N870   1.157       .  T
C867        N872   1.157       .  T
C868        N871   1.157       .  T
C877        C878   1.416       .  A
C877        C882   1.405       .  A
C877        C891   1.444       .  S
C878        C879   1.406       .  A
C878        C883   1.501       .  S
C879        C880   1.405       .  A
C879        H898   1.084       .  S
C880        C881   1.411       .  A
C880        C892   1.441       .  S
C881        C882   1.403       .  A
C882        H897   1.084       .  S
C883        C884   1.406       .  A
C883        C888   1.416       .  A
C884        C885   1.402       .  A
C884        H899   1.085       .  S
C885        C886   1.413       .  A
C885        C889   1.444       .  S
C886        C887   1.406       .  A
C887        C888   1.407       .  A
C887        H900   1.085       .  S
C888        C890   1.443       .  S
C889        N893   1.157       .  T
C890        N894   1.157       .  T
C891        N896   1.157       .  T
C892        N895   1.157       .  T
C901        C902   1.408       .  A
C901        C906   1.400       .  A
C901        C915   1.444       .  S
C902        C903   1.405       .  A
C902        C907   1.490       .  S
C903        C904   1.409       .  A
C903        H922   1.084       .  S
C904        C905   1.412       .  A
C904        C916   1.441       .  S
C905        C906   1.407       .  A
C906        H921   1.084       .  S
C907        C908   1.402       .  A
C907        C912   1.410       .  A
C908        C909   1.403       .  A
C908        H923   1.085       .  S
C909        C910   1.414       .  A
C909        C913   1.443       .  S
C910        C911   1.406       .  A
C911        C912   1.406       .  A
C911        H924   1.085       .  S
C912        C914   1.443       .  S
C913        N917   1.157       .  T
C914        N918   1.157       .  T
C915        N920   1.157       .  T
C916        N919   1.157       .  T
C925        C926   1.413       .  A
C925        C930   1.405       .  A
C925        C939   1.443       .  S
C926        C927   1.409       .  A
C926        C931   1.505       .  S
C927        C928   1.413       .  A
C927        H946   1.084       .  S
C928        C929   1.414       .  A
C928        C940   1.444       .  S
C929        C930   1.405       .  A
C930        H945   1.085       .  S
C931        C932   1.404       .  A
C931        C936   1.415       .  A
C932        C933   1.405       .  A
C932        H947   1.085       .  S
C933        C934   1.415       .  A
C933        C937   1.443       .  S
C934        C935   1.405       .  A
C935        C936   1.415       .  A
C935        H948   1.083       .  S
C936        C938   1.442       .  S
C937        N941   1.157       .  T
C938        N942   1.157       .  T
C939        N944   1.157       .  T
C940        N943   1.158       .  T
C949        C950   1.408       .  A
C949        C954   1.395       .  A
C949        C963   1.445       .  S
C950        C951   1.406       .  A
C950        C955   1.486       .  S
C951        C952   1.409       .  A
C951        H970   1.084       .  S
C952        C953   1.410       .  A
C952        C964   1.441       .  S
C953        C954   1.406       .  A
C954        H969   1.084       .  S
C955        C956   1.403       .  A
C955        C960   1.410       .  A
C956        C957   1.400       .  A
C956        H971   1.085       .  S
C957        C958   1.412       .  A
C957        C961   1.444       .  S
C958        C959   1.407       .  A
C959        C960   1.404       .  A
C959        H972   1.085       .  S
C960        C962   1.444       .  S
C961        N965   1.157       .  T
C962        N966   1.157       .  T
C963        N968   1.157       .  T
C964        N967   1.157       .  T
C973        C974   1.409       .  A
C973        C978   1.404       .  A
C973        C987   1.444       .  S
C974        C975   1.407       .  A
C974        C979   1.499       .  S
C975        C976   1.412       .  A
C975        H994   1.084       .  S
C976        C977   1.413       .  A
C976        C988   1.440       .  S
C977        C978   1.411       .  A
C978        H993   1.084       .  S
C979        C980   1.402       .  A
C979        C984   1.412       .  A
C980        C981   1.404       .  A
C980        H995   1.085       .  S
C981        C982   1.418       .  A
C981        C985   1.443       .  S
C982        C983   1.409       .  A
C983        C984   1.412       .  A
C983        H996   1.084       .  S
C984        C986   1.443       .  S
C985        N989   1.157       .  T
C986        N990   1.157       .  T
C987        N992   1.157       .  T
C988        N991   1.157       .  T
C997        C998   1.415       .  A
C997       C1002   1.406       .  A
C997       C1011   1.444       .  S
C998        C999   1.409       .  A
C998       C1003   1.504       .  S
C999       C1000   1.406       .  A
C999       H1018   1.084       .  S
C1000      C1001   1.410       .  A
C1000      C1012   1.444       .  S
C1001      C1002   1.405       .  A
C1002      H1017   1.085       .  S
C1003      C1004   1.409       .  A
C1003      C1008   1.416       .  A
C1004      C1005   1.405       .  A
C1004      H1019   1.084       .  S
C1005      C1006   1.407       .  A
C1005      C1009   1.442       .  S
C1006      C1007   1.403       .  A
C1007      C1008   1.406       .  A
C1007      H1020   1.083       .  S
C1008      C1010   1.444       .  S
C1009      N1013   1.157       .  T
C1010      N1014   1.157       .  T
C1011      N1016   1.157       .  T
C1012      N1015   1.157       .  T
C1021      C1022   1.412       .  A
C1021      C1026   1.412       .  A
C1021      C1035   1.442       .  S
C1022      C1023   1.402       .  A
C1022      C1027   1.500       .  S
C1023      C1024   1.404       .  A
C1023      H1042   1.085       .  S
C1024      C1025   1.421       .  A
C1024      C1036   1.444       .  S
C1025      C1026   1.407       .  A
C1026      H1041   1.083       .  S
C1027      C1028   1.409       .  A
C1027      C1032   1.410       .  A
C1028      C1029   1.415       .  A
C1028      H1043   1.084       .  S
C1029      C1030   1.415       .  A
C1029      C1033   1.443       .  S
C1030      C1031   1.406       .  A
C1031      C1032   1.400       .  A
C1031      H1044   1.085       .  S
C1032      C1034   1.444       .  S
C1033      N1037   1.158       .  T
C1034      N1038   1.157       .  T
C1035      N1040   1.157       .  T
C1036      N1039   1.158       .  T
C1045      C1046   1.415       .  A
C1045      C1050   1.405       .  A
C1045      C1059   1.443       .  S
C1046      C1047   1.405       .  A
C1046      C1051   1.492       .  S
C1047      C1048   1.398       .  A
C1047      H1066   1.085       .  S
C1048      C1049   1.408       .  A
C1048      C1060   1.443       .  S
C1049      C1050   1.401       .  A
C1050      H1065   1.083       .  S
C1051      C1052   1.405       .  A
C1051      C1056   1.412       .  A
C1052      C1053   1.404       .  A
C1052      H1067   1.085       .  S
C1053      C1054   1.414       .  A
C1053      C1057   1.442       .  S
C1054      C1055   1.404       .  A
C1055      C1056   1.399       .  A
C1055      H1068   1.085       .  S
C1056      C1058   1.444       .  S
C1057      N1061   1.157       .  T
C1058      N1062   1.157       .  T
C1059      N1064   1.157       .  T
C1060      N1063   1.157       .  T
C1069      C1070   1.415       .  A
C1069      C1074   1.411       .  A
C1069      C1083   1.443       .  S
C1070      C1071   1.403       .  A
C1070      C1075   1.498       .  S
C1071      C1072   1.401       .  A
C1071      H1090   1.085       .  S
C1072      C1073   1.413       .  A
C1072      C1084   1.443       .  S
C1073      C1074   1.405       .  A
C1074      H1089   1.083       .  S
C1075      C1076   1.406       .  A
C1075      C1080   1.412       .  A
C1076      C1077   1.409       .  A
C1076      H1091   1.085       .  S
C1077      C1078   1.417       .  A
C1077      C1081   1.444       .  S
C1078      C1079   1.409       .  A
C1079      C1080   1.404       .  A
C1079      H1092   1.085       .  S
C1080      C1082   1.444       .  S
C1081      N1085   1.157       .  T
C1082      N1086   1.157       .  T
C1083      N1088   1.157       .  T
C1084      N1087   1.157       .  T
C1093      C1094   1.412       .  A
C1093      C1098   1.402       .  A
C1093      C1107   1.444       .  S
C1094      C1095   1.402       .  A
C1094      C1099   1.487       .  S
C1095      C1096   1.404       .  A
C1095      H1114   1.084       .  S
C1096      C1097   1.413       .  A
C1096      C1108   1.444       .  S
C1097      C1098   1.402       .  A
C1098      H1113   1.085       .  S
C1099      C1100   1.409       .  A
C1099      C1104   1.407       .  A
C1100      C1101   1.404       .  A
C1100      H1115   1.084       .  S
C1101      C1102   1.405       .  A
C1101      C1105   1.443       .  S
C1102      C1103   1.408       .  A
C1103      C1104   1.400       .  A
C1103      H1116   1.086       .  S
C1104      C1106   1.444       .  S
C1105      N1109   1.157       .  T
C1106      N1110   1.157       .  T
C1107      N1112   1.157       .  T
C1108      N1111   1.157       .  T
C1117      C1118   1.404       .  A
C1117      C1122   1.397       .  A
C1117      C1131   1.444       .  S
C1118      C1119   1.410       .  A
C1118      C1123   1.490       .  S
C1119      C1120   1.410       .  A
C1119      H1138   1.084       .  S
C1120      C1121   1.411       .  A
C1120      C1132   1.442       .  S
C1121      C1122   1.411       .  A
C1122      H1137   1.083       .  S
C1123      C1124   1.406       .  A
C1123      C1128   1.407       .  A
C1124      C1125   1.406       .  A
C1124      H1139   1.085       .  S
C1125      C1126   1.411       .  A
C1125      C1129   1.443       .  S
C1126      C1127   1.407       .  A
C1127      C1128   1.403       .  A
C1127      H1140   1.085       .  S
C1128      C1130   1.443       .  S
C1129      N1133   1.157       .  T
C1130      N1134   1.157       .  T
C1131      N1136   1.157       .  T
C1132      N1135   1.157       .  T
C1141      C1142   1.409       .  A
C1141      C1146   1.400       .  A
C1141      C1155   1.445       .  S
C1142      C1143   1.397       .  A
C1142      C1147   1.483       .  S
C1143      C1144   1.404       .  A
C1143      H1162   1.085       .  S
C1144      C1145   1.427       .  A
C1144      C1156   1.444       .  S
C1145      C1146   1.409       .  A
C1146      H1161   1.084       .  S
C1147      C1148   1.401       .  A
C1147      C1152   1.409       .  A
C1148      C1149   1.404       .  A
C1148      H1163   1.085       .  S
C1149      C1150   1.413       .  A
C1149      C1153   1.442       .  S
C1150      C1151   1.406       .  A
C1151      C1152   1.399       .  A
C1151      H1164   1.085       .  S
C1152      C1154   1.445       .  S
C1153      N1157   1.157       .  T
C1154      N1158   1.157       .  T
C1155      N1160   1.157       .  T
C1156      N1159   1.157       .  T
C1165      C1166   1.413       .  A
C1165      C1170   1.405       .  A
C1165      C1179   1.443       .  S
C1166      C1167   1.402       .  A
C1166      C1171   1.491       .  S
C1167      C1168   1.404       .  A
C1167      H1186   1.084       .  S
C1168      C1169   1.414       .  A
C1168      C1180   1.444       .  S
C1169      C1170   1.402       .  A
C1170      H1185   1.085       .  S
C1171      C1172   1.405       .  A
C1171      C1176   1.409       .  A
C1172      C1173   1.404       .  A
C1172      H1187   1.085       .  S
C1173      C1174   1.411       .  A
C1173      C1177   1.445       .  S
C1174      C1175   1.406       .  A
C1175      C1176   1.405       .  A
C1175      H1188   1.085       .  S
C1176      C1178   1.443       .  S
C1177      N1181   1.157       .  T
C1178      N1182   1.157       .  T
C1179      N1184   1.157       .  T
C1180      N1183   1.157       .  T
C1189      C1190   1.415       .  A
C1189      C1194   1.407       .  A
C1189      C1203   1.443       .  S
C1190      C1191   1.400       .  A
C1190      C1195   1.495       .  S
C1191      C1192   1.399       .  A
C1191      H1210   1.085       .  S
C1192      C1193   1.420       .  A
C1192      C1204   1.444       .  S
C1193      C1194   1.405       .  A
C1194      H1209   1.085       .  S
C1195      C1196   1.407       .  A
C1195      C1200   1.413       .  A
C1196      C1197   1.405       .  A
C1196      H1211   1.084       .  S
C1197      C1198   1.411       .  A
C1197      C1201   1.443       .  S
C1198      C1199   1.404       .  A
C1199      C1200   1.401       .  A
C1199      H1212   1.084       .  S
C1200      C1202   1.444       .  S
C1201      N1205   1.157       .  T
C1202      N1206   1.157       .  T
C1203      N1208   1.157       .  T
C1204      N1207   1.157       .  T
C1213      C1214   1.411       .  A
C1213      C1218   1.396       .  A
C1213      C1227   1.445       .  S
C1214      C1215   1.405       .  A
C1214      C1219   1.495       .  S
C1215      C1216   1.410       .  A
C1215      H1234   1.084       .  S
C1216      C1217   1.422       .  A
C1216      C1228   1.444       .  S
C1217      C1218   1.407       .  A
C1218      H1233   1.084       .  S
C1219      C1220   1.406       .  A
C1219      C1224   1.413       .  A
C1220      C1221   1.402       .  A
C1220      H1235   1.085       .  S
C1221      C1222   1.409       .  A
C1221      C1225   1.444       .  S
C1222      C1223   1.404       .  A
C1223      C1224   1.405       .  A
C1223      H1236   1.085       .  S
C1224      C1226   1.444       .  S
C1225      N1229   1.157       .  T
C1226      N1230   1.157       .  T
C1227      N1232   1.157       .  T
C1228      N1231   1.158       .  T
C1237      C1238   1.405       .  A
C1237      C1242   1.396       .  A
C1237      C1251   1.445       .  S
C1238      C1239   1.407       .  A
C1238      C1243   1.485       .  S
C1239      C1240   1.404       .  A
C1239      H1258   1.085       .  S
C1240      C1241   1.412       .  A
C1240      C1252   1.443       .  S
C1241      C1242   1.411       .  A
C1242      H1257   1.085       .  S
C1243      C1244   1.404       .  A
C1243      C1248   1.413       .  A
C1244      C1245   1.398       .  A
C1244      H1259   1.085       .  S
C1245      C1246   1.408       .  A
C1245      C1249   1.444       .  S
C1246      C1247   1.402       .  A
C1247      C1248   1.400       .  A
C1247      H1260   1.085       .  S
C1248      C1250   1.444       .  S
C1249      N1253   1.157       .  T
C1250      N1254   1.157       .  T
C1251      N1256   1.157       .  T
C1252      N1255   1.157       .  T
C1261      C1262   1.415       .  A
C1261      C1266   1.407       .  A
C1261      C1275   1.443       .  S
C1262      C1263   1.404       .  A
C1262      C1267   1.498       .  S
C1263      C1264   1.402       .  A
C1263      H1282   1.085       .  S
C1264      C1265   1.412       .  A
C1264      C1276   1.445       .  S
C1265      C1266   1.404       .  A
C1266      H1281   1.085       .  S
C1267      C1268   1.411       .  A
C1267      C1272   1.409       .  A
C1268      C1269   1.409       .  A
C1268      H1283   1.084       .  S
C1269      C1270   1.409       .  A
C1269      C1273   1.443       .  S
C1270      C1271   1.411       .  A
C1271      C1272   1.402       .  A
C1271      H1284   1.086       .  S
C1272      C1274   1.443       .  S
C1273      N1277   1.157       .  T
C1274      N1278   1.157       .  T
C1275      N1280   1.157       .  T
C1276      N1279   1.157       .  T
C1285      C1286   1.404       .  A
C1285      C1290   1.402       .  A
C1285      C1299   1.443       .  S
C1286      C1287   1.400       .  A
C1286      C1291   1.480       .  S
C1287      C1288   1.400       .  A
C1287      H1306   1.085       .  S
C1288      C1289   1.420       .  A
C1288      C1300   1.444       .  S
C1289      C1290   1.412       .  A
C1290      H1305   1.084       .  S
C1291      C1292   1.401       .  A
C1291      C1296   1.408       .  A
C1292      C1293   1.398       .  A
C1292      H1307   1.084       .  S
C1293      C1294   1.410       .  A
C1293      C1297   1.444       .  S
C1294      C1295   1.405       .  A
C1295      C1296   1.403       .  A
C1295      H1308   1.085       .  S
C1296      C1298   1.443       .  S
C1297      N1301   1.157       .  T
C1298      N1302   1.157       .  T
C1299      N1304   1.157       .  T
C1300      N1303   1.157       .  T
C1309      C1310   1.414       .  A
C1309      C1314   1.404       .  A
C1309      C1323   1.444       .  S
C1310      C1311   1.400       .  A
C1310      C1315   1.487       .  S
C1311      C1312   1.402       .  A
C1311      H1330   1.084       .  S
C1312      C1313   1.413       .  A
C1312      C1324   1.443       .  S
C1313      C1314   1.401       .  A
C1314      H1329   1.085       .  S
C1315      C1316   1.402       .  A
C1315      C1320   1.410       .  A
C1316      C1317   1.406       .  A
C1316      H1331   1.085       .  S
C1317      C1318   1.415       .  A
C1317      C1321   1.443       .  S
C1318      C1319   1.403       .  A
C1319      C1320   1.399       .  A
C1319      H1332   1.085       .  S
C1320      C1322   1.444       .  S
C1321      N1325   1.157       .  T
C1322      N1326   1.157       .  T
C1323      N1328   1.157       .  T
C1324      N1327   1.157       .  T
C1333      C1334   1.403       .  A
C1333      C1338   1.402       .  A
C1333      C1347   1.443       .  S
C1334      C1335   1.399       .  A
C1334      C1339   1.477       .  S
C1335      C1336   1.397       .  A
C1335      H1354   1.085       .  S
C1336      C1337   1.420       .  A
C1336      C1348   1.444       .  S
C1337      C1338   1.414       .  A
C1338      H1353   1.084       .  S
C1339      C1340   1.401       .  A
C1339      C1344   1.409       .  A
C1340      C1341   1.397       .  A
C1340      H1355   1.085       .  S
C1341      C1342   1.410       .  A
C1341      C1345   1.444       .  S
C1342      C1343   1.402       .  A
C1343      C1344   1.400       .  A
C1343      H1356   1.085       .  S
C1344      C1346   1.443       .  S
C1345      N1349   1.157       .  T
C1346      N1350   1.157       .  T
C1347      N1352   1.157       .  T
C1348      N1351   1.157       .  T
C1357      C1358   1.415       .  A
C1357      C1362   1.406       .  A
C1357      C1371   1.444       .  S
C1358      C1359   1.404       .  A
C1358      C1363   1.496       .  S
C1359      C1360   1.405       .  A
C1359      H1378   1.084       .  S
C1360      C1361   1.413       .  A
C1360      C1372   1.444       .  S
C1361      C1362   1.403       .  A
C1362      H1377   1.085       .  S
C1363      C1364   1.400       .  A
C1363      C1368   1.415       .  A
C1364      C1365   1.401       .  A
C1364      H1379   1.085       .  S
C1365      C1366   1.418       .  A
C1365      C1369   1.444       .  S
C1366      C1367   1.403       .  A
C1367      C1368   1.409       .  A
C1367      H1380   1.084       .  S
C1368      C1370   1.443       .  S
C1369      N1373   1.157       .  T
C1370      N1374   1.157       .  T
C1371      N1376   1.157       .  T
C1372      N1375   1.157       .  T
C1381      C1382   1.417       .  A
C1381      C1386   1.412       .  A
C1381      C1395   1.443   1_554  S
C1382      C1383   1.402       .  A
C1382      C1387   1.502       .  S
C1383      C1384   1.401       .  A
C1383      H1402   1.085       .  S
C1384      C1385   1.416       .  A
C1384      C1396   1.442       .  S
C1385      C1386   1.405       .  A
C1386      H1401   1.083   1_554  S
C1387      C1388   1.406       .  A
C1387      C1392   1.415   1_554  A
C1388      C1389   1.409       .  A
C1388      H1403   1.085       .  S
C1389      C1390   1.417       .  A
C1389      C1393   1.444       .  S
C1390      C1391   1.404   1_554  A
C1391      C1392   1.403       .  A
C1391      H1404   1.082       .  S
C1392      C1394   1.444       .  S
C1393      N1397   1.157       .  T
C1394      N1398   1.157       .  T
C1395      N1400   1.157       .  T
C1396      N1399   1.157       .  T
C1405      C1406   1.411       .  A
C1405      C1410   1.405       .  A
C1405      C1419   1.443       .  S
C1406      C1407   1.404       .  A
C1406      C1411   1.491       .  S
C1407      C1408   1.400       .  A
C1407      H1426   1.085       .  S
C1408      C1409   1.411       .  A
C1408      C1420   1.444       .  S
C1409      C1410   1.406       .  A
C1410      H1425   1.085       .  S
C1411      C1412   1.401       .  A
C1411      C1416   1.415       .  A
C1412      C1413   1.404       .  A
C1412      H1427   1.085       .  S
C1413      C1414   1.415       .  A
C1413      C1417   1.443       .  S
C1414      C1415   1.401       .  A
C1415      C1416   1.403       .  A
C1415      H1428   1.085       .  S
C1416      C1418   1.445       .  S
C1417      N1421   1.157       .  T
C1418      N1422   1.157       .  T
C1419      N1424   1.157       .  T
C1420      N1423   1.157       .  T
C1429      C1430   1.410       .  A
C1429      C1434   1.395       .  A
C1429      C1443   1.445       .  S
C1430      C1431   1.403       .  A
C1430      C1435   1.484       .  S
C1431      C1432   1.408       .  A
C1431      H1450   1.084       .  S
C1432      C1433   1.417       .  A
C1432      C1444   1.444       .  S
C1433      C1434   1.403       .  A
C1434      H1449   1.085       .  S
C1435      C1436   1.404       .  A
C1435      C1440   1.409       .  A
C1436      C1437   1.405       .  A
C1436      H1451   1.084       .  S
C1437      C1438   1.410       .  A
C1437      C1441   1.443       .  S
C1438      C1439   1.404       .  A
C1439      C1440   1.399       .  A
C1439      H1452   1.085       .  S
C1440      C1442   1.445       .  S
C1441      N1445   1.157       .  T
C1442      N1446   1.157       .  T
C1443      N1448   1.157       .  T
C1444      N1447   1.157       .  T
C1453      C1454   1.408       .  A
C1453      C1458   1.403       .  A
C1453      C1467   1.445       .  S
C1454      C1455   1.408       .  A
C1454      C1459   1.498       .  S
C1455      C1456   1.411       .  A
C1455      H1474   1.085       .  S
C1456      C1457   1.414       .  A
C1456      C1468   1.442       .  S
C1457      C1458   1.415       .  A
C1458      H1473   1.085       .  S
C1459      C1460   1.405       .  A
C1459      C1464   1.414       .  A
C1460      C1461   1.404       .  A
C1460      H1475   1.084       .  S
C1461      C1462   1.410       .  A
C1461      C1465   1.443       .  S
C1462      C1463   1.406       .  A
C1463      C1464   1.407       .  A
C1463      H1476   1.085       .  S
C1464      C1466   1.444       .  S
C1465      N1469   1.157       .  T
C1466      N1470   1.157       .  T
C1467      N1472   1.157       .  T
C1468      N1471   1.157       .  T
C1477      C1478   1.414       .  A
C1477      C1482   1.404       .  A
C1477      C1491   1.443       .  S
C1478      C1479   1.402       .  A
C1478      C1483   1.490       .  S
C1479      C1480   1.399       .  A
C1479      H1498   1.085       .  S
C1480      C1481   1.415       .  A
C1480      C1492   1.445       .  S
C1481      C1482   1.402       .  A
C1482      H1497   1.085       .  S
C1483      C1484   1.408       .  A
C1483      C1488   1.410       .  A
C1484      C1485   1.407       .  A
C1484      H1499   1.084       .  S
C1485      C1486   1.408       .  A
C1485      C1489   1.442       .  S
C1486      C1487   1.404       .  A
C1487      C1488   1.398       .  A
C1487      H1500   1.085       .  S
C1488      C1490   1.444       .  S
C1489      N1493   1.157       .  T
C1490      N1494   1.157       .  T
C1491      N1496   1.157       .  T
C1492      N1495   1.157       .  T
C1501      C1502   1.406       .  A
C1501      C1506   1.400       .  A
C1501      C1515   1.443       .  S
C1502      C1503   1.407       .  A
C1502      C1507   1.488       .  S
C1503      C1504   1.407       .  A
C1503      H1522   1.085       .  S
C1504      C1505   1.411       .  A
C1504      C1516   1.444       .  S
C1505      C1506   1.407       .  A
C1506      H1521   1.085       .  S
C1507      C1508   1.404       .  A
C1507      C1512   1.409       .  A
C1508      C1509   1.401       .  A
C1508      H1523   1.085       .  S
C1509      C1510   1.409       .  A
C1509      C1513   1.443       .  S
C1510      C1511   1.405       .  A
C1511      C1512   1.405       .  A
C1511      H1524   1.085       .  S
C1512      C1514   1.443       .  S
C1513      N1517   1.157       .  T
C1514      N1518   1.157       .  T
C1515      N1520   1.157       .  T
C1516      N1519   1.157       .  T
C1525      C1526   1.411       .  A
C1525      C1530   1.404       .  A
C1525      C1539   1.443       .  S
C1526      C1527   1.403       .  A
C1526      C1531   1.488       .  S
C1527      C1528   1.400       .  A
C1527      H1546   1.084       .  S
C1528      C1529   1.411       .  A
C1528      C1540   1.443       .  S
C1529      C1530   1.404       .  A
C1530      H1545   1.085       .  S
C1531      C1532   1.402       .  A
C1531      C1536   1.406       .  A
C1532      C1533   1.404       .  A
C1532      H1547   1.085       .  S
C1533      C1534   1.423       .  A
C1533      C1537   1.444       .  S
C1534      C1535   1.412       .  A
C1535      C1536   1.401       .  A
C1535      H1548   1.084       .  S
C1536      C1538   1.443       .  S
C1537      N1541   1.158       .  T
C1538      N1542   1.157       .  T
C1539      N1544   1.157       .  T
C1540      N1543   1.157       .  T
C1549      C1550   1.414       .  A
C1549      C1554   1.404       .  A
C1549      C1563   1.444       .  S
C1550      C1551   1.404       .  A
C1550      C1555   1.495       .  S
C1551      C1552   1.400       .  A
C1551      H1570   1.085       .  S
C1552      C1553   1.411       .  A
C1552      C1564   1.442       .  S
C1553      C1554   1.405       .  A
C1554      H1569   1.085       .  S
C1555      C1556   1.398       .  A
C1555      C1560   1.417       .  A
C1556      C1557   1.396       .  A
C1556      H1571   1.085       .  S
C1557      C1558   1.419       .  A
C1557      C1561   1.443       .  S
C1558      C1559   1.406       .  A
C1559      C1560   1.409       .  A
C1559      H1572   1.084       .  S
C1560      C1562   1.444       .  S
C1561      N1565   1.157       .  T
C1562      N1566   1.157       .  T
C1563      N1568   1.157       .  T
C1564      N1567   1.157       .  T
C1573      C1574   1.405       .  A
C1573      C1578   1.401       .  A
C1573      C1587   1.443       .  S
C1574      C1575   1.401       .  A
C1574      C1579   1.482       .  S
C1575      C1576   1.400       .  A
C1575      H1594   1.085       .  S
C1576      C1577   1.418       .  A
C1576      C1588   1.444       .  S
C1577      C1578   1.412       .  A
C1578      H1593   1.084       .  S
C1579      C1580   1.402       .  A
C1579      C1584   1.409       .  A
C1580      C1581   1.401       .  A
C1580      H1595   1.085       .  S
C1581      C1582   1.413       .  A
C1581      C1585   1.443       .  S
C1582      C1583   1.404       .  A
C1583      C1584   1.399       .  A
C1583      H1596   1.085       .  S
C1584      C1586   1.443       .  S
C1585      N1589   1.157       .  T
C1586      N1590   1.157       .  T
C1587      N1592   1.157       .  T
C1588      N1591   1.157       .  T
C1597      C1598   1.415       .  A
C1597      C1602   1.408       .  A
C1597      C1611   1.444       .  S
C1598      C1599   1.399       .  A
C1598      C1603   1.494       .  S
C1599      C1600   1.401       .  A
C1599      H1618   1.085       .  S
C1600      C1601   1.419       .  A
C1600      C1612   1.444       .  S
C1601      C1602   1.406       .  A
C1602      H1617   1.084       .  S
C1603      C1604   1.403       .  A
C1603      C1608   1.413       .  A
C1604      C1605   1.403       .  A
C1604      H1619   1.085       .  S
C1605      C1606   1.413       .  A
C1605      C1609   1.443       .  S
C1606      C1607   1.403       .  A
C1607      C1608   1.404       .  A
C1607      H1620   1.085       .  S
C1608      C1610   1.442       .  S
C1609      N1613   1.157       .  T
C1610      N1614   1.157       .  T
C1611      N1616   1.157       .  T
C1612      N1615   1.157       .  T
C1621      C1622   1.417       .  A
C1621      C1626   1.404       .  A
C1621      C1635   1.444       .  S
C1622      C1623   1.401       .  A
C1622      C1627   1.491       .  S
C1623      C1624   1.399       .  A
C1623      H1642   1.085       .  S
C1624      C1625   1.411       .  A
C1624      C1636   1.443       .  S
C1625      C1626   1.401       .  A
C1626      H1641   1.085       .  S
C1627      C1628   1.402       .  A
C1627      C1632   1.413       .  A
C1628      C1629   1.401       .  A
C1628      H1643   1.085       .  S
C1629      C1630   1.416       .  A
C1629      C1633   1.445       .  S
C1630      C1631   1.404       .  A
C1631      C1632   1.403       .  A
C1631      H1644   1.083       .  S
C1632      C1634   1.444       .  S
C1633      N1637   1.157       .  T
C1634      N1638   1.157       .  T
C1635      N1640   1.157       .  T
C1636      N1639   1.157       .  T
C1645      C1646   1.413       .  A
C1645      C1650   1.402       .  A
C1645      C1659   1.444   1_545  S
C1646      C1647   1.407       .  A
C1646      C1651   1.493       .  S
C1647      C1648   1.402       .  A
C1647      H1666   1.084       .  S
C1648      C1649   1.408       .  A
C1648      C1660   1.444       .  S
C1649      C1650   1.404       .  A
C1650      H1665   1.085   1_545  S
C1651      C1652   1.406       .  A
C1651      C1656   1.413       .  A
C1652      C1653   1.403       .  A
C1652      H1667   1.085       .  S
C1653      C1654   1.410       .  A
C1653      C1657   1.443       .  S
C1654      C1655   1.401       .  A
C1655      C1656   1.404       .  A
C1655      H1668   1.081       .  S
C1656      C1658   1.443       .  S
C1657      N1661   1.157       .  T
C1658      N1662   1.157       .  T
C1659      N1664   1.157       .  T
C1660      N1663   1.157       .  T
C1669      C1670   1.409       .  A
C1669      C1674   1.401       .  A
C1669      C1683   1.443       .  S
C1670      C1671   1.402       .  A
C1670      C1675   1.485       .  S
C1671      C1672   1.402       .  A
C1671      H1690   1.085       .  S
C1672      C1673   1.412       .  A
C1672      C1684   1.443   1_565  S
C1673      C1674   1.405       .  A
C1674      H1689   1.085       .  S
C1675      C1676   1.407       .  A
C1675      C1680   1.403       .  A
C1676      C1677   1.410       .  A
C1676      H1691   1.085       .  S
C1677      C1678   1.414       .  A
C1677      C1681   1.443       .  S
C1678      C1679   1.412       .  A
C1679      C1680   1.396       .  A
C1679      H1692   1.085       .  S
C1680      C1682   1.445       .  S
C1681      N1685   1.157       .  T
C1682      N1686   1.157       .  T
C1683      N1688   1.157       .  T
C1684      N1687   1.157       .  T
C1693      C1694   1.415       .  A
C1693      C1698   1.397       .  A
C1693      C1707   1.445       .  S
C1694      C1695   1.404       .  A
C1694      C1699   1.487       .  S
C1695      C1696   1.402       .  A
C1695      H1714   1.084       .  S
C1696      C1697   1.410       .  A
C1696      C1708   1.444       .  S
C1697      C1698   1.399       .  A
C1698      H1713   1.085       .  S
C1699      C1700   1.407       .  A
C1699      C1704   1.410       .  A
C1700      C1701   1.401       .  A
C1700      H1715   1.085       .  S
C1701      C1702   1.406       .  A
C1701      C1705   1.443       .  S
C1702      C1703   1.404       .  A
C1703      C1704   1.399       .  A
C1703      H1716   1.085       .  S
C1704      C1706   1.443       .  S
C1705      N1709   1.157       .  T
C1706      N1710   1.157       .  T
C1707      N1712   1.157       .  T
C1708      N1711   1.157       .  T
C1717      C1718   1.415       .  A
C1717      C1722   1.410       .  A
C1717      C1731   1.443       .  S
C1718      C1719   1.395       .  A
C1718      C1723   1.496       .  S
C1719      C1720   1.401       .  A
C1719      H1738   1.085       .  S
C1720      C1721   1.429       .  A
C1720      C1732   1.445       .  S
C1721      C1722   1.407       .  A
C1722      H1737   1.084       .  S
C1723      C1724   1.408       .  A
C1723      C1728   1.411       .  A
C1724      C1725   1.409       .  A
C1724      H1739   1.084       .  S
C1725      C1726   1.409       .  A
C1725      C1729   1.443       .  S
C1726      C1727   1.405       .  A
C1727      C1728   1.401       .  A
C1727      H1740   1.082       .  S
C1728      C1730   1.444       .  S
C1729      N1733   1.157       .  T
C1730      N1734   1.157       .  T
C1731      N1736   1.157       .  T
C1732      N1735   1.157       .  T
C1741      C1742   1.414       .  A
C1741      C1746   1.400       .  A
C1741      C1755   1.444       .  S
C1742      C1743   1.407       .  A
C1742      C1747   1.492       .  S
C1743      C1744   1.402       .  A
C1743      H1762   1.085       .  S
C1744      C1745   1.409       .  A
C1744      C1756   1.443       .  S
C1745      C1746   1.400       .  A
C1746      H1761   1.081       .  S
C1747      C1748   1.409       .  A
C1747      C1752   1.413       .  A
C1748      C1749   1.406       .  A
C1748      H1763   1.084       .  S
C1749      C1750   1.407       .  A
C1749      C1753   1.442       .  S
C1750      C1751   1.401       .  A
C1751      C1752   1.396       .  A
C1751      H1764   1.084       .  S
C1752      C1754   1.445       .  S
C1753      N1757   1.157       .  T
C1754      N1758   1.157       .  T
C1755      N1760   1.157       .  T
C1756      N1759   1.157       .  T
C1765      C1766   1.412       .  A
C1765      C1770   1.409       .  A
C1765      C1779   1.443       .  S
C1766      C1767   1.403       .  A
C1766      C1771   1.495       .  S
C1767      C1768   1.401       .  A
C1767      H1786   1.085       .  S
C1768      C1769   1.412       .  A
C1768      C1780   1.443       .  S
C1769      C1770   1.407       .  A
C1770      H1785   1.085       .  S
C1771      C1772   1.407       .  A
C1771      C1776   1.410       .  A
C1772      C1773   1.405       .  A
C1772      H1787   1.085       .  S
C1773      C1774   1.409       .  A
C1773      C1777   1.443       .  S
C1774      C1775   1.409       .  A
C1775      C1776   1.405       .  A
C1775      H1788   1.085       .  S
C1776      C1778   1.444       .  S
C1777      N1781   1.157       .  T
C1778      N1782   1.157       .  T
C1779      N1784   1.157       .  T
C1780      N1783   1.157       .  T
C1789      C1790   1.412       .  A
C1789      C1794   1.402       .  A
C1789      C1803   1.444       .  S
C1790      C1791   1.402       .  A
C1790      C1795   1.485       .  S
C1791      C1792   1.398       .  A
C1791      H1810   1.085       .  S
C1792      C1793   1.409       .  A
C1792      C1804   1.443       .  S
C1793      C1794   1.403       .  A
C1794      H1809   1.085       .  S
C1795      C1796   1.403       .  A
C1795      C1800   1.406       .  A
C1796      C1797   1.400       .  A
C1796      H1811   1.085       .  S
C1797      C1798   1.419       .  A
C1797      C1801   1.444       .  S
C1798      C1799   1.414       .  A
C1799      C1800   1.401       .  A
C1799      H1812   1.084       .  S
C1800      C1802   1.444       .  S
C1801      N1805   1.157       .  T
C1802      N1806   1.157       .  T
C1803      N1808   1.157       .  T
C1804      N1807   1.157       .  T
C1813      C1814   1.416       .  A
C1813      C1818   1.412       .  A
C1813      C1827   1.443       .  S
C1814      C1815   1.404       .  A
C1814      C1819   1.502       .  S
C1815      C1816   1.400       .  A
C1815      H1834   1.085       .  S
C1816      C1817   1.414       .  A
C1816      C1828   1.443       .  S
C1817      C1818   1.406       .  A
C1818      H1833   1.083       .  S
C1819      C1820   1.408       .  A
C1819      C1824   1.416       .  A
C1820      C1821   1.409       .  A
C1820      H1835   1.084   1_655  S
C1821      C1822   1.415       .  A
C1821      C1825   1.444   1_655  S
C1822      C1823   1.404       .  A
C1823      C1824   1.401       .  A
C1823      H1836   1.085       .  S
C1824      C1826   1.444       .  S
C1825      N1829   1.157       .  T
C1826      N1830   1.157       .  T
C1827      N1832   1.157       .  T
C1828      N1831   1.157       .  T
C1837      C1838   1.415       .  A
C1837      C1842   1.405       .  A
C1837      C1851   1.444       .  S
C1838      C1839   1.403       .  A
C1838      C1843   1.496       .  S
C1839      C1840   1.399       .  A
C1839      H1858   1.084       .  S
C1840      C1841   1.413       .  A
C1840      C1852   1.443       .  S
C1841      C1842   1.404       .  A
C1842      H1857   1.085       .  S
C1843      C1844   1.409       .  A
C1843      C1848   1.412       .  A
C1844      C1845   1.406       .  A
C1844      H1859   1.084       .  S
C1845      C1846   1.410       .  A
C1845      C1849   1.443       .  S
C1846      C1847   1.410       .  A
C1847      C1848   1.401       .  A
C1847      H1860   1.085       .  S
C1848      C1850   1.445       .  S
C1849      N1853   1.157       .  T
C1850      N1854   1.157       .  T
C1851      N1856   1.157       .  T
C1852      N1855   1.157       .  T
C1861      C1862   1.412       .  A
C1861      C1866   1.404       .  A
C1861      C1875   1.443       .  S
C1862      C1863   1.402       .  A
C1862      C1867   1.491       .  S
C1863      C1864   1.402       .  A
C1863      H1882   1.085       .  S
C1864      C1865   1.416       .  A
C1864      C1876   1.444       .  S
C1865      C1866   1.404       .  A
C1866      H1881   1.082       .  S
C1867      C1868   1.409       .  A
C1867      C1872   1.409       .  A
C1868      C1869   1.408       .  A
C1868      H1883   1.084       .  S
C1869      C1870   1.409       .  A
C1869      C1873   1.443       .  S
C1870      C1871   1.406       .  A
C1871      C1872   1.398       .  A
C1871      H1884   1.085       .  S
C1872      C1874   1.444       .  S
C1873      N1877   1.157       .  T
C1874      N1878   1.157       .  T
C1875      N1880   1.157       .  T
C1876      N1879   1.157       .  T
C1885      C1886   1.409       .  A
C1885      C1890   1.399       .  A
C1885      C1899   1.445       .  S
C1886      C1887   1.409       .  A
C1886      C1891   1.491       .  S
C1887      C1888   1.406       .  A
C1887      H1906   1.084       .  S
C1888      C1889   1.408       .  A
C1888      C1900   1.442       .  S
C1889      C1890   1.407       .  A
C1890      H1905   1.086       .  S
C1891      C1892   1.402       .  A
C1891      C1896   1.412       .  A
C1892      C1893   1.400       .  A
C1892      H1907   1.085       .  S
C1893      C1894   1.414       .  A
C1893      C1897   1.444       .  S
C1894      C1895   1.403       .  A
C1895      C1896   1.404       .  A
C1895      H1908   1.085       .  S
C1896      C1898   1.443       .  S
C1897      N1901   1.157       .  T
C1898      N1902   1.157       .  T
C1899      N1904   1.157       .  T
C1900      N1903   1.157       .  T
C1909      C1910   1.410       .  A
C1909      C1914   1.398       .  A
C1909      C1923   1.445       .  S
C1910      C1911   1.400       .  A
C1910      C1915   1.486       .  S
C1911      C1912   1.406       .  A
C1911      H1930   1.085       .  S
C1912      C1913   1.423       .  A
C1912      C1924   1.444       .  S
C1913      C1914   1.407       .  A
C1914      H1929   1.085       .  S
C1915      C1916   1.403       .  A
C1915      C1920   1.412       .  A
C1916      C1917   1.401       .  A
C1916      H1931   1.084       .  S
C1917      C1918   1.407       .  A
C1917      C1921   1.443       .  S
C1918      C1919   1.402       .  A
C1919      C1920   1.401       .  A
C1919      H1932   1.085       .  S
C1920      C1922   1.444       .  S
C1921      N1925   1.157       .  T
C1922      N1926   1.157       .  T
C1923      N1928   1.157       .  T
C1924      N1927   1.157       .  T
C1933      C1934   1.415       .  A
C1933      C1938   1.399       .  A
C1933      C1947   1.445       .  S
C1934      C1935   1.407       .  A
C1934      C1939   1.500       .  S
C1935      C1936   1.408       .  A
C1935      H1954   1.084       .  S
C1936      C1937   1.417       .  A
C1936      C1948   1.444       .  S
C1937      C1938   1.404       .  A
C1938      H1953   1.085       .  S
C1939      C1940   1.403       .  A
C1939      C1944   1.415       .  A
C1940      C1941   1.399       .  A
C1940      H1955   1.085       .  S
C1941      C1942   1.412       .  A
C1941      C1945   1.441       .  S
C1942      C1943   1.407       .  A
C1943      C1944   1.410       .  A
C1943      H1956   1.083       .  S
C1944      C1946   1.443       .  S
C1945      N1949   1.157       .  T
C1946      N1950   1.157       .  T
C1947      N1952   1.157       .  T
C1948      N1951   1.157   1_545  T
C1957      C1958   1.418       .  A
C1957      C1962   1.407       .  A
C1957      C1971   1.443       .  S
C1958      C1959   1.402       .  A
C1958      C1963   1.497       .  S
C1959      C1960   1.399       .  A
C1959      H1978   1.085       .  S
C1960      C1961   1.416       .  A
C1960      C1972   1.445       .  S
C1961      C1962   1.402       .  A
C1962      H1977   1.084       .  S
C1963      C1964   1.403       .  A
C1963      C1968   1.415       .  A
C1964      C1965   1.400       .  A
C1964      H1979   1.085       .  S
C1965      C1966   1.415       .  A
C1965      C1969   1.444   1_455  S
C1966      C1967   1.404       .  A
C1967      C1968   1.407       .  A
C1967      H1980   1.084       .  S
C1968      C1970   1.444       .  S
C1969      N1973   1.157       .  T
C1970      N1974   1.157       .  T
C1971      N1976   1.157       .  T
C1972      N1975   1.157       .  T
C1981      C1982   1.408       .  A
C1981      C1986   1.399       .  A
C1981      C1995   1.444       .  S
C1982      C1983   1.407       .  A
C1982      C1987   1.495       .  S
C1983      C1984   1.408       .  A
C1983      H2002   1.085       .  S
C1984      C1985   1.416       .  A
C1984      C1996   1.442       .  S
C1985      C1986   1.409       .  A
C1986      H2001   1.085       .  S
C1987      C1988   1.409       .  A
C1987      C1992   1.407       .  A
C1988      C1989   1.408       .  A
C1988      H2003   1.084       .  S
C1989      C1990   1.414       .  A
C1989      C1993   1.442       .  S
C1990      C1991   1.414       .  A
C1991      C1992   1.399       .  A
C1991      H2004   1.083       .  S
C1992      C1994   1.445       .  S
C1993      N1997   1.157       .  T
C1994      N1998   1.157       .  T
C1995      N2000   1.157       .  T
C1996      N1999   1.157       .  T
C2005      C2006   1.416       .  A
C2005      C2010   1.410       .  A
C2005      C2019   1.443       .  S
C2006      C2007   1.407       .  A
C2006      C2011   1.507       .  S
C2007      C2008   1.408       .  A
C2007      H2026   1.084   1_655  S
C2008      C2009   1.413       .  A
C2008      C2020   1.443   1_655  S
C2009      C2010   1.405       .  A
C2010      H2025   1.084       .  S
C2011      C2012   1.404       .  A
C2011      C2016   1.414       .  A
C2012      C2013   1.408       .  A
C2012      H2027   1.085       .  S
C2013      C2014   1.423       .  A
C2013      C2017   1.443       .  S
C2014      C2015   1.409       .  A
C2015      C2016   1.410       .  A
C2015      H2028   1.082       .  S
C2016      C2018   1.442   1_655  S
C2017      N2021   1.158       .  T
C2018      N2022   1.157       .  T
C2019      N2024   1.157       .  T
C2020      N2023   1.157       .  T
C2029      C2030   1.408       .  A
C2029      C2034   1.400       .  A
C2029      C2043   1.443       .  S
C2030      C2031   1.402       .  A
C2030      C2035   1.482       .  S
C2031      C2032   1.398       .  A
C2031      H2050   1.085       .  S
C2032      C2033   1.414       .  A
C2032      C2044   1.443       .  S
C2033      C2034   1.408       .  A
C2034      H2049   1.085       .  S
C2035      C2036   1.402       .  A
C2035      C2040   1.411       .  A
C2036      C2037   1.398       .  A
C2036      H2051   1.085       .  S
C2037      C2038   1.411       .  A
C2037      C2041   1.444       .  S
C2038      C2039   1.403       .  A
C2039      C2040   1.400       .  A
C2039      H2052   1.085       .  S
C2040      C2042   1.444       .  S
C2041      N2045   1.157       .  T
C2042      N2046   1.157       .  T
C2043      N2048   1.157       .  T
C2044      N2047   1.157       .  T
C2053      C2054   1.404       .  A
C2053      C2058   1.402       .  A
C2053      C2067   1.443       .  S
C2054      C2055   1.400       .  A
C2054      C2059   1.481       .  S
C2055      C2056   1.399       .  A
C2055      H2074   1.085       .  S
C2056      C2057   1.421       .  A
C2056      C2068   1.445       .  S
C2057      C2058   1.412       .  A
C2058      H2073   1.084       .  S
C2059      C2060   1.400       .  A
C2059      C2064   1.410       .  A
C2060      C2061   1.398       .  A
C2060      H2075   1.085       .  S
C2061      C2062   1.411       .  A
C2061      C2065   1.445       .  S
C2062      C2063   1.403       .  A
C2063      C2064   1.403       .  A
C2063      H2076   1.085       .  S
C2064      C2066   1.444       .  S
C2065      N2069   1.157       .  T
C2066      N2070   1.157       .  T
C2067      N2072   1.157       .  T
C2068      N2071   1.157       .  T
C2077      C2078   1.412       .  A
C2077      C2082   1.398       .  A
C2077      C2091   1.445       .  S
C2078      C2079   1.402       .  A
C2078      C2083   1.485       .  S
C2079      C2080   1.402       .  A
C2079      H2098   1.085       .  S
C2080      C2081   1.415       .  A
C2080      C2092   1.443       .  S
C2081      C2082   1.404       .  A
C2082      H2097   1.085       .  S
C2083      C2084   1.402       .  A
C2083      C2088   1.411       .  A
C2084      C2085   1.396       .  A
C2084      H2099   1.085       .  S
C2085      C2086   1.410       .  A
C2085      C2089   1.442       .  S
C2086      C2087   1.404       .  A
C2087      C2088   1.404       .  A
C2087      H2100   1.080       .  S
C2088      C2090   1.443       .  S
C2089      N2093   1.157       .  T
C2090      N2094   1.157       .  T
C2091      N2096   1.157       .  T
C2092      N2095   1.157   1_545  T
C2101      C2102   1.409       .  A
C2101      C2106   1.401       .  A
C2101      C2115   1.445       .  S
C2102      C2103   1.404       .  A
C2102      C2107   1.486       .  S
C2103      C2104   1.405       .  A
C2103      H2122   1.084       .  S
C2104      C2105   1.409       .  A
C2104      C2116   1.442       .  S
C2105      C2106   1.405       .  A
C2106      H2121   1.084       .  S
C2107      C2108   1.401       .  A
C2107      C2112   1.409       .  A
C2108      C2109   1.408       .  A
C2108      H2123   1.084       .  S
C2109      C2110   1.421       .  A
C2109      C2113   1.443       .  S
C2110      C2111   1.405       .  A
C2111      C2112   1.398       .  A
C2111      H2124   1.085       .  S
C2112      C2114   1.445       .  S
C2113      N2117   1.157       .  T
C2114      N2118   1.157       .  T
C2115      N2120   1.157       .  T
C2116      N2119   1.157       .  T
C2125      C2126   1.413       .  A
C2125      C2130   1.402       .  A
C2125      C2139   1.443       .  S
C2126      C2127   1.406       .  A
C2126      C2131   1.495       .  S
C2127      C2128   1.406       .  A
C2127      H2146   1.084       .  S
C2128      C2129   1.411       .  A
C2128      C2140   1.443       .  S
C2129      C2130   1.401       .  A
C2130      H2145   1.085       .  S
C2131      C2132   1.409       .  A
C2131      C2136   1.409       .  A
C2132      C2133   1.408       .  A
C2132      H2147   1.084       .  S
C2133      C2134   1.409       .  A
C2133      C2137   1.443       .  S
C2134      C2135   1.409       .  A
C2135      C2136   1.403       .  A
C2135      H2148   1.085       .  S
C2136      C2138   1.444       .  S
C2137      N2141   1.157       .  T
C2138      N2142   1.157       .  T
C2139      N2144   1.157       .  T
C2140      N2143   1.157       .  T
C2149      C2150   1.416       .  A
C2149      C2154   1.402       .  A
C2149      C2163   1.445   1_655  S
C2150      C2151   1.407       .  A
C2150      C2155   1.499       .  S
C2151      C2152   1.405       .  A
C2151      H2170   1.084       .  S
C2152      C2153   1.409       .  A
C2152      C2164   1.440       .  S
C2153      C2154   1.403       .  A
C2154      H2169   1.084   1_655  S
C2155      C2156   1.404       .  A
C2155      C2160   1.415   1_655  A
C2156      C2157   1.398       .  A
C2156      H2171   1.085       .  S
C2157      C2158   1.415       .  A
C2157      C2161   1.445       .  S
C2158      C2159   1.407       .  A
C2159      C2160   1.406   1_655  A
C2159      H2172   1.085   1_655  S
C2160      C2162   1.443       .  S
C2161      N2165   1.157       .  T
C2162      N2166   1.157       .  T
C2163      N2168   1.157       .  T
C2164      N2167   1.157       .  T
C2173      C2174   1.413       .  A
C2173      C2178   1.404       .  A
C2173      C2187   1.444       .  S
C2174      C2175   1.408       .  A
C2174      C2179   1.500       .  S
C2175      C2176   1.407       .  A
C2175      H2194   1.085       .  S
C2176      C2177   1.412       .  A
C2176      C2188   1.444       .  S
C2177      C2178   1.407       .  A
C2178      H2193   1.085       .  S
C2179      C2180   1.409       .  A
C2179      C2184   1.414       .  A
C2180      C2181   1.406       .  A
C2180      H2195   1.085       .  S
C2181      C2182   1.410       .  A
C2181      C2185   1.443       .  S
C2182      C2183   1.404       .  A
C2183      C2184   1.401       .  A
C2183      H2196   1.085       .  S
C2184      C2186   1.444       .  S
C2185      N2189   1.157       .  T
C2186      N2190   1.157       .  T
C2187      N2192   1.157       .  T
C2188      N2191   1.157       .  T
C2197      C2198   1.418       .  A
C2197      C2202   1.402       .  A
C2197      C2211   1.444       .  S
C2198      C2199   1.407       .  A
C2198      C2203   1.500       .  S
C2199      C2200   1.402       .  A
C2199      H2218   1.084       .  S
C2200      C2201   1.410       .  A
C2200      C2212   1.444       .  S
C2201      C2202   1.402       .  A
C2202      H2217   1.085       .  S
C2203      C2204   1.403       .  A
C2203      C2208   1.418       .  A
C2204      C2205   1.398       .  A
C2204      H2219   1.084       .  S
C2205      C2206   1.415       .  A
C2205      C2209   1.443       .  S
C2206      C2207   1.403       .  A
C2207      C2208   1.407       .  A
C2207      H2220   1.084       .  S
C2208      C2210   1.443       .  S
C2209      N2213   1.157       .  T
C2210      N2214   1.157       .  T
C2211      N2216   1.157       .  T
C2212      N2215   1.157       .  T
C2221      C2222   1.409   1_455  A
C2221      C2226   1.399       .  A
C2221      C2235   1.445       .  S
C2222      C2223   1.404       .  A
C2222      C2227   1.495       .  S
C2223      C2224   1.410       .  A
C2223      H2242   1.084       .  S
C2224      C2225   1.416       .  A
C2224      C2236   1.440       .  S
C2225      C2226   1.413   1_655  A
C2226      H2241   1.083       .  S
C2227      C2228   1.406       .  A
C2227      C2232   1.409       .  A
C2228      C2229   1.413       .  A
C2228      H2243   1.084       .  S
C2229      C2230   1.418       .  A
C2229      C2233   1.441       .  S
C2230      C2231   1.411       .  A
C2231      C2232   1.397       .  A
C2231      H2244   1.085       .  S
C2232      C2234   1.446       .  S
C2233      N2237   1.157   1_655  T
C2234      N2238   1.157       .  T
C2235      N2240   1.157       .  T
C2236      N2239   1.157       .  T
C2245      C2246   1.413       .  A
C2245      C2250   1.402       .  A
C2245      C2259   1.443       .  S
C2246      C2247   1.404       .  A
C2246      C2251   1.489       .  S
C2247      C2248   1.400       .  A
C2247      H2266   1.085       .  S
C2248      C2249   1.410   1_565  A
C2248      C2260   1.444       .  S
C2249      C2250   1.402   1_545  A
C2250      H2265   1.085   1_565  S
C2251      C2252   1.410       .  A
C2251      C2256   1.408       .  A
C2252      C2253   1.408       .  A
C2252      H2267   1.084       .  S
C2253      C2254   1.408       .  A
C2253      C2257   1.443       .  S
C2254      C2255   1.407       .  A
C2255      C2256   1.397       .  A
C2255      H2268   1.086       .  S
C2256      C2258   1.445       .  S
C2257      N2261   1.157       .  T
C2258      N2262   1.157       .  T
C2259      N2264   1.157       .  T
C2260      N2263   1.157       .  T
C2269      C2270   1.409       .  A
C2269      C2274   1.399       .  A
C2269      C2283   1.444       .  S
C2270      C2271   1.403       .  A
C2270      C2275   1.477       .  S
C2271      C2272   1.398       .  A
C2271      H2290   1.085       .  S
C2272      C2273   1.408       .  A
C2272      C2284   1.444       .  S
C2273      C2274   1.402       .  A
C2274      H2289   1.085       .  S
C2275      C2276   1.399       .  A
C2275      C2280   1.409       .  A
C2276      C2277   1.404       .  A
C2276      H2291   1.085       .  S
C2277      C2278   1.421       .  A
C2277      C2281   1.444       .  S
C2278      C2279   1.404       .  A
C2279      C2280   1.393       .  A
C2279      H2292   1.085       .  S
C2280      C2282   1.446       .  S
C2281      N2285   1.157       .  T
C2282      N2286   1.157       .  T
C2283      N2288   1.157       .  T
C2284      N2287   1.157       .  T
C2293      C2294   1.415       .  A
C2293      C2298   1.407       .  A
C2293      C2307   1.443       .  S
C2294      C2295   1.404       .  A
C2294      C2299   1.494       .  S
C2295      C2296   1.399       .  A
C2295      H2314   1.085       .  S
C2296      C2297   1.409       .  A
C2296      C2308   1.442       .  S
C2297      C2298   1.402       .  A
C2298      H2313   1.083       .  S
C2299      C2300   1.405       .  A
C2299      C2304   1.414       .  A
C2300      C2301   1.406       .  A
C2300      H2315   1.084       .  S
C2301      C2302   1.413       .  A
C2301      C2305   1.443   1_545  S
C2302      C2303   1.404       .  A
C2303      C2304   1.401       .  A
C2303      H2316   1.085       .  S
C2304      C2306   1.445       .  S
C2305      N2309   1.157       .  T
C2306      N2310   1.157       .  T
C2307      N2312   1.157       .  T
C2308      N2311   1.157       .  T
C2317      C2318   1.409       .  A
C2317      C2322   1.398       .  A
C2317      C2331   1.444       .  S
C2318      C2319   1.401       .  A
C2318      C2323   1.480       .  S
C2319      C2320   1.401       .  A
C2319      H2338   1.085       .  S
C2320      C2321   1.413       .  A
C2320      C2332   1.444       .  S
C2321      C2322   1.403       .  A
C2322      H2337   1.085       .  S
C2323      C2324   1.400       .  A
C2323      C2328   1.409       .  A
C2324      C2325   1.405       .  A
C2324      H2339   1.085       .  S
C2325      C2326   1.422       .  A
C2325      C2329   1.444       .  S
C2326      C2327   1.406       .  A
C2327      C2328   1.393       .  A
C2327      H2340   1.084       .  S
C2328      C2330   1.446       .  S
C2329      N2333   1.158       .  T
C2330      N2334   1.157       .  T
C2331      N2336   1.157       .  T
C2332      N2335   1.157       .  T
C2341      C2342   1.413       .  A
C2341      C2346   1.398       .  A
C2341      C2355   1.444       .  S
C2342      C2343   1.409       .  A
C2342      C2347   1.494       .  S
C2343      C2344   1.406       .  A
C2343      H2362   1.084       .  S
C2344      C2345   1.407       .  A
C2344      C2356   1.443       .  S
C2345      C2346   1.402       .  A
C2346      H2361   1.086       .  S
C2347      C2348   1.402       .  A
C2347      C2352   1.415       .  A
C2348      C2349   1.399       .  A
C2348      H2363   1.085       .  S
C2349      C2350   1.415       .  A
C2349      C2353   1.444       .  S
C2350      C2351   1.404       .  A
C2351      C2352   1.405       .  A
C2351      H2364   1.085       .  S
C2352      C2354   1.443       .  S
C2353      N2357   1.157       .  T
C2354      N2358   1.157       .  T
C2355      N2360   1.157       .  T
C2356      N2359   1.157       .  T
C2365      C2366   1.413       .  A
C2365      C2370   1.397       .  A
C2365      C2379   1.445       .  S
C2366      C2367   1.407   1_556  A
C2366      C2371   1.496       .  S
C2367      C2368   1.407       .  A
C2367      H2386   1.084       .  S
C2368      C2369   1.416   1_554  A
C2368      C2380   1.443       .  S
C2369      C2370   1.406       .  A
C2370      H2385   1.085       .  S
C2371      C2372   1.403   1_556  A
C2371      C2376   1.416       .  A
C2372      C2373   1.395       .  A
C2372      H2387   1.085       .  S
C2373      C2374   1.412       .  A
C2373      C2377   1.444       .  S
C2374      C2375   1.404   1_554  A
C2375      C2376   1.409       .  A
C2375      H2388   1.083       .  S
C2376      C2378   1.443       .  S
C2377      N2381   1.157       .  T
C2378      N2382   1.157       .  T
C2379      N2384   1.157       .  T
C2380      N2383   1.157       .  T
C2389      C2390   1.410       .  A
C2389      C2394   1.395       .  A
C2389      C2403   1.445       .  S
C2390      C2391   1.412       .  A
C2390      C2395   1.494       .  S
C2391      C2392   1.409       .  A
C2391      H2410   1.084       .  S
C2392      C2393   1.408       .  A
C2392      C2404   1.442       .  S
C2393      C2394   1.409       .  A
C2394      H2409   1.086       .  S
C2395      C2396   1.406       .  A
C2395      C2400   1.414       .  A
C2396      C2397   1.401       .  A
C2396      H2411   1.084       .  S
C2397      C2398   1.410       .  A
C2397      C2401   1.444       .  S
C2398      C2399   1.403       .  A
C2399      C2400   1.403       .  A
C2399      H2412   1.085       .  S
C2400      C2402   1.443       .  S
C2401      N2405   1.157       .  T
C2402      N2406   1.157       .  T
C2403      N2408   1.157       .  T
C2404      N2407   1.157       .  T
C2413      C2414   1.417       .  A
C2413      C2418   1.411       .  A
C2413      C2427   1.444       .  S
C2414      C2415   1.400       .  A
C2414      C2419   1.499       .  S
C2415      C2416   1.398       .  A
C2415      H2434   1.085       .  S
C2416      C2417   1.418       .  A
C2416      C2428   1.443       .  S
C2417      C2418   1.406       .  A
C2418      H2433   1.084       .  S
C2419      C2420   1.409       .  A
C2419      C2424   1.416       .  A
C2420      C2421   1.406       .  A
C2420      H2435   1.084       .  S
C2421      C2422   1.408       .  A
C2421      C2425   1.443       .  S
C2422      C2423   1.402       .  A
C2423      C2424   1.401       .  A
C2423      H2436   1.085       .  S
C2424      C2426   1.444       .  S
C2425      N2429   1.157       .  T
C2426      N2430   1.157       .  T
C2427      N2432   1.157       .  T
C2428      N2431   1.157       .  T
C2437      C2438   1.413       .  A
C2437      C2442   1.399       .  A
C2437      C2451   1.444       .  S
C2438      C2439   1.411   1_554  A
C2438      C2443   1.504       .  S
C2439      C2440   1.415       .  A
C2439      H2458   1.084       .  S
C2440      C2441   1.412   1_556  A
C2440      C2452   1.441       .  S
C2441      C2442   1.406       .  A
C2442      H2457   1.084       .  S
C2443      C2444   1.402   1_554  A
C2443      C2448   1.414       .  A
C2444      C2445   1.402       .  A
C2444      H2459   1.085       .  S
C2445      C2446   1.419   1_556  A
C2445      C2449   1.443       .  S
C2446      C2447   1.412       .  A
C2447      C2448   1.415       .  A
C2447      H2460   1.084       .  S
C2448      C2450   1.443       .  S
C2449      N2453   1.157       .  T
C2450      N2454   1.157       .  T
C2451      N2456   1.157       .  T
C2452      N2455   1.157       .  T
C2461      C2462   1.406       .  A
C2461      C2466   1.400       .  A
C2461      C2475   1.441       .  S
C2462      C2463   1.400       .  A
C2462      C2467   1.482       .  S
C2463      C2464   1.402       .  A
C2463      H2482   1.085       .  S
C2464      C2465   1.415       .  A
C2464      C2476   1.441       .  S
C2465      C2466   1.407       .  A
C2466      H2481   1.085       .  S
C2467      C2468   1.399       .  A
C2467      C2472   1.408       .  A
C2468      C2469   1.405       .  A
C2468      H2483   1.085       .  S
C2469      C2470   1.426       .  A
C2469      C2473   1.445       .  S
C2470      C2471   1.407       .  A
C2471      C2472   1.397       .  A
C2471      H2484   1.084       .  S
C2472      C2474   1.445       .  S
C2473      N2477   1.158       .  T
C2474      N2478   1.157       .  T
C2475      N2480   1.156       .  T
C2476      N2479   1.157       .  T
C2485      C2486   1.414       .  A
C2485      C2490   1.407       .  A
C2485      C2499   1.444       .  S
C2486      C2487   1.401       .  A
C2486      C2491   1.490       .  S
C2487      C2488   1.397       .  A
C2487      H2506   1.085       .  S
C2488      C2489   1.414       .  A
C2488      C2500   1.445       .  S
C2489      C2490   1.404       .  A
C2490      H2505   1.084       .  S
C2491      C2492   1.407       .  A
C2491      C2496   1.409       .  A
C2492      C2493   1.407       .  A
C2492      H2507   1.084       .  S
C2493      C2494   1.414       .  A
C2493      C2497   1.443       .  S
C2494      C2495   1.407       .  A
C2495      C2496   1.396       .  A
C2495      H2508   1.085       .  S
C2496      C2498   1.444       .  S
C2497      N2501   1.157       .  T
C2498      N2502   1.157       .  T
C2499      N2504   1.157       .  T
C2500      N2503   1.157   1_556  T
C2509      C2510   1.409   1_554  A
C2509      C2514   1.405       .  A
C2509      C2523   1.443       .  S
C2510      C2511   1.400       .  A
C2510      C2515   1.486       .  S
C2511      C2512   1.400       .  A
C2511      H2530   1.085       .  S
C2512      C2513   1.417       .  A
C2512      C2524   1.443       .  S
C2513      C2514   1.407   1_556  A
C2514      H2529   1.084       .  S
C2515      C2516   1.403       .  A
C2515      C2520   1.407   1_556  A
C2516      C2517   1.408       .  A
C2516      H2531   1.085       .  S
C2517      C2518   1.417   1_556  A
C2517      C2521   1.440       .  S
C2518      C2519   1.410       .  A
C2519      C2520   1.396       .  A
C2519      H2532   1.084       .  S
C2520      C2522   1.445       .  S
C2521      N2525   1.157       .  T
C2522      N2526   1.157       .  T
C2523      N2528   1.157       .  T
C2524      N2527   1.157       .  T
