geometry optimzed in LAMMPS
_audit_creation_date              2020-12-01 
_audit_creation_method            'lammps2cif' 
_symmetry_space_group_name_H-M    'P1' 
_symmetry_Int_Tables_number       1 
_symmetry_cell_setting            triclinic 
loop_ 
_symmetry_equiv_pos_as_xyz 
  x,y,z 
_cell_length_a                    88.70022306 
_cell_length_b                    89.39519661119502 
_cell_length_c                    35.52761141682267 
_cell_angle_alpha                 90.07789719713531 
_cell_angle_beta                  89.46562514547705 
_cell_angle_gamma                 123.24939512858252 
loop_ 
_atom_site_label 
_atom_site_type_symbol 
_atom_site_fract_x 
_atom_site_fract_y 
_atom_site_fract_z 
_atom_site_charge 
O1          O  0.64515169  0.87609654  0.32081237    -0.56800
C2          C  0.62183022  0.89855555  0.35517878     0.75900
O3          O  0.66450388  0.92226980  0.40790021    -0.57900
C4          C  0.65951340  0.87635414  0.32300478     0.75800
C5          C  0.67973415  0.93702778  0.30196086     0.78200
Cd6        Cd  0.65764123  0.90574862  0.34835001     1.37500
O7          O  0.63110792  0.90546682  0.32547429    -0.56800
O8          O  0.66431236  0.92397068  0.29279119    -0.55600
C9          C  0.66281978  0.90950051  0.42713857     0.78200
O10         O  0.68577063  0.93575359  0.33318242    -0.58000
O11         O  0.62839369  0.89363364  0.37976555    -0.56400
O12         O  0.67339504  0.89070986  0.33428142    -0.56400
O13         O  0.66150966  0.89659550  0.40933302    -0.55600
O14         O  0.76378376  0.09856783  0.13119358    -0.56800
C15         C  0.72268934  0.08036170  0.08222856     0.75900
O16         O  0.76565288  0.07790462  0.03709029    -0.57900
C17         C  0.77950669  0.10323553  0.12088279     0.75800
C18         C  0.73579373  0.03916773  0.14385987     0.78200
Cd19       Cd  0.74820007  0.07063327  0.09608815     1.37500
O20         O  0.72470255  0.07650080  0.11531251    -0.56800
O21         O  0.75076502  0.05363663  0.14965150    -0.55600
C22         C  0.75281520  0.06503539  0.01919262     0.78200
O23         O  0.72711375  0.03907732  0.11584074    -0.58000
O24         O  0.73277266  0.08037452  0.05707043    -0.56400
O25         O  0.78090288  0.09214765  0.10139985    -0.56400
O26         O  0.73942269  0.05323177  0.03831294    -0.55600
O27         O  0.89612610  0.22428445  0.15543295    -0.56800
C28         C  0.94253530  0.25259471  0.19199874     0.75900
O29         O  0.91493390  0.26917001  0.12440382    -0.57900
C30         C  0.88014457  0.22011401  0.16077506     0.75800
C31         C  0.90680204  0.25712545  0.26546012     0.78200
Cd32       Cd  0.91078997  0.25380107  0.18549447     1.37500
O33         O  0.93948158  0.25771854  0.16151587    -0.56800
O34         O  0.89416874  0.24427934  0.24699110    -0.55600
C35         C  0.91797691  0.28367686  0.13763270     0.78200
O36         O  0.92006658  0.26926071  0.24646233    -0.58000
O37         O  0.93058773  0.24711418  0.21728307    -0.56400
O38         O  0.87825520  0.23179991  0.17608817    -0.56400
O39         O  0.91659541  0.28422186  0.17302982    -0.55600
O40         O  0.00409414  0.44606003  0.94986022    -0.56800
C41         C  0.02768994  0.42420926  0.92140850     0.75900
O42         O  0.98245283  0.39912831  0.98878934    -0.57900
C43         C  0.98934768  0.44511646  0.95065978     0.75800
C44         C  0.98419158  0.41080242  0.84943025     0.78200
Cd45       Cd  0.99140074  0.41557164  0.92837527     1.37500
O46         O  0.01942247  0.41878334  0.95266439    -0.56800
O47         O  0.98596317  0.39984569  0.86825592    -0.55600
C48         C  0.96980750  0.38431031  0.97601360     0.78200
O49         O  0.98340320  0.42249652  0.86782764    -0.58000
O50         O  0.01979909  0.42685307  0.89555549    -0.56400
O51         O  0.97519988  0.43009113  0.94343170    -0.56400
O52         O  0.96648905  0.38392949  0.94130997    -0.55600
O53         O  0.06579107  0.75608305  0.72827501    -0.56800
C54         C  0.11075088  0.77575072  0.80219614     0.75900
O55         O  0.07610093  0.71923548  0.80299026    -0.57900
C56         C  0.05599421  0.75757907  0.75188157     0.75800
C57         C  0.08137764  0.73675902  0.69536633     0.78200
Cd58       Cd  0.07836008  0.74521623  0.77180673     1.37500
O59         O  0.09581962  0.77441123  0.80326723    -0.56800
O60         O  0.06689270  0.72731630  0.71401704    -0.55600
C61         C  0.06081634  0.71313775  0.81808296     0.78200
O62         O  0.09500490  0.74871037  0.71325818    -0.58000
O63         O  0.11063727  0.76252913  0.78906262    -0.56400
O64         O  0.05731721  0.75448301  0.78610626    -0.56400
O65         O  0.05394333  0.72216198  0.81317249    -0.55600
O66         O  0.97573928  0.54881418  0.99384647    -0.56800
C67         C  0.95258708  0.56632499  0.03632240     0.75900
O68         O  0.99964260  0.59647699  0.07984436    -0.57900
C69         C  0.99026499  0.54934240  0.99223824     0.75800
C70         C  0.00630554  0.60926385  0.97028354     0.78200
Cd71       Cd  0.98932415  0.57857391  0.02117797     1.37500
O72         O  0.96334196  0.56799340  0.06150011    -0.56800
O73         O  0.01456268  0.60215432  0.98099716    -0.55600
C74         C  0.00084242  0.58511158  0.09848258     0.78200
O75         O  0.99061494  0.60256260  0.98354584    -0.58000
O76         O  0.95828787  0.56893314  0.00258073    -0.56400
O77         O  0.00453780  0.56382379  0.00158792    -0.56400
O78         O  0.99908456  0.57211687  0.08023266    -0.55600
O79         O  0.23198981  0.89194031  0.83268771    -0.56800
C80         C  0.27889103  0.91721466  0.86242597     0.75900
O81         O  0.25921226  0.95327544  0.85433662    -0.57900
C82         C  0.21664702  0.88890111  0.84106351     0.75800
C83         C  0.24834980  0.92508341  0.94342223     0.78200
Cd84       Cd  0.24920798  0.92146196  0.86296287     1.37500
O85         O  0.26692998  0.91087395  0.88776768    -0.56800
O86         O  0.26109560  0.93728781  0.92356230    -0.55600
C87         C  0.25608412  0.95224261  0.81947410     0.78200
O88         O  0.23504042  0.91250308  0.92588269    -0.58000
O89         O  0.27644722  0.92431207  0.83433121    -0.56400
O90         O  0.21634217  0.90129595  0.85765962    -0.56400
O91         O  0.24913869  0.93695419  0.80488305    -0.55600
O92         O  0.34046599  0.11014293  0.62789882    -0.56800
C93         C  0.36352901  0.08753756  0.59312439     0.75900
O94         O  0.30111335  0.04928870  0.61926273    -0.57900
C95         C  0.32598360  0.10970719  0.62680155     0.75800
C96         C  0.31935501  0.07450964  0.52349365     0.78200
Cd97       Cd  0.32755746  0.07991339  0.60235395     1.37500
O98         O  0.35528266  0.08974658  0.56734467    -0.56800
O99         O  0.31964705  0.06283607  0.54312067    -0.55600
C100        C  0.30583992  0.04990242  0.65306914     0.78200
O101        O  0.32064373  0.08748709  0.54106671    -0.58000
O102        O  0.35570172  0.08272749  0.62489096    -0.56400
O103        O  0.31205397  0.09525652  0.61603880    -0.56400
O104        O  0.32029244  0.06404662  0.66288756    -0.55600
O105        O  0.29087522  0.23478717  0.67032374    -0.56800
C106        C  0.32251663  0.21196075  0.66371891     0.75900
O107        O  0.34720462  0.27226230  0.66652074    -0.57900
C108        C  0.28703384  0.23703145  0.70335999     0.75800
C109        C  0.33130702  0.24503037  0.76539491     0.78200
Cd110      Cd  0.32153236  0.24196973  0.68775209     1.37500
O111        O  0.30783300  0.21115829  0.66572386    -0.56800
O112        O  0.32476348  0.23049955  0.74762155    -0.55600
C113        C  0.34168937  0.27089436  0.63314223     0.78200
O114        O  0.33544023  0.25879147  0.74625609    -0.58000
O115        O  0.33676026  0.22677845  0.67163046    -0.56400
O116        O  0.29880512  0.24125381  0.72798064    -0.56400
O117        O  0.32710778  0.25643559  0.62521658    -0.55600
O118        O  0.42880399  0.42958360  0.45225228    -0.56800
C119        C  0.38552456  0.41044040  0.40543677     0.75900
O120        O  0.42744882  0.40976449  0.35814462    -0.57900
C121        C  0.44401358  0.43191559  0.44554923     0.75800
C122        C  0.39796454  0.36947690  0.46604917     0.78200
Cd123      Cd  0.41123584  0.40099304  0.41861635     1.37500
O124        O  0.39384642  0.40795092  0.37992060    -0.56800
O125        O  0.41396863  0.38290864  0.46843041    -0.55600
C126        C  0.41628240  0.39548340  0.34117169     0.78200
O127        O  0.38821830  0.37048877  0.44189537    -0.58000
O128        O  0.38951084  0.40940413  0.43909321    -0.56400
O129        O  0.44401737  0.41958156  0.42792955    -0.56400
O130        O  0.40422023  0.38272535  0.36116179    -0.55600
O131        O  0.67297032  0.77096934  0.30087047    -0.56800
C132        C  0.69670629  0.74944490  0.27787853     0.75900
O133        O  0.64009685  0.70820521  0.28029857    -0.57900
C134        C  0.65918000  0.77142985  0.29489646     0.75800
C135        C  0.65466776  0.73786508  0.19406250     0.78200
Cd136      Cd  0.66055381  0.74117994  0.27356557     1.37500
O137        O  0.68618865  0.74312649  0.30609365    -0.56800
O138        O  0.65911557  0.72854479  0.21144256    -0.55600
C139        C  0.63694485  0.70832351  0.31499584     0.78200
O140        O  0.65137333  0.74755643  0.21379055    -0.58000
O141        O  0.69105465  0.75329013  0.24943074    -0.56400
O142        O  0.64562349  0.75751265  0.28107338    -0.56400
O143        O  0.64338013  0.72350017  0.32977865    -0.55600
O144        O  0.56605870  0.54604206  0.48068546    -0.56800
C145        C  0.61196814  0.56825003  0.52400290     0.75900
O146        O  0.59094923  0.60536577  0.49962722    -0.57900
C147        C  0.55103119  0.54398151  0.48786347     0.75800
C148        C  0.58237964  0.57968713  0.59084726     0.78200
Cd149      Cd  0.58432042  0.57497996  0.51189218     1.37500
O150        O  0.61271400  0.57662153  0.49457967    -0.56800
O151        O  0.56959896  0.56646540  0.57357775    -0.55600
C152        C  0.59419674  0.60549391  0.46481922     0.78200
O153        O  0.59491312  0.59212872  0.57089878    -0.58000
O154        O  0.59805904  0.56193771  0.54425501    -0.56400
O155        O  0.55140395  0.55688904  0.50363004    -0.56400
O156        O  0.59269786  0.59156968  0.45177480    -0.55600
O157        O  0.88657994  0.23233512  0.63920596    -0.56800
C158        C  0.90529441  0.27807355  0.60300744     0.75900
O159        O  0.94866681  0.26677276  0.62005684    -0.57900
C160        C  0.88554173  0.21807719  0.63033459     0.75800
C161        C  0.91999256  0.25157289  0.52740021     0.78200
Cd162      Cd  0.91569016  0.25279592  0.60801109     1.37500
O163        O  0.89897616  0.26464266  0.58193529    -0.56800
O164        O  0.92957218  0.26596562  0.54557010    -0.55600
C165        C  0.94740552  0.26485141  0.65547784     0.78200
O166        O  0.91043374  0.23747428  0.54679116    -0.58000
O167        O  0.91485413  0.27890093  0.63015948    -0.56400
O168        O  0.89895819  0.21980479  0.61298866    -0.56400
O169        O  0.93159664  0.25683141  0.66904766    -0.55600
O170        O  0.11467957  0.35313024  0.82182611    -0.56800
C171        C  0.08890789  0.37534040  0.85543283     0.75900
O172        O  0.05266253  0.31399394  0.83927745    -0.57900
C173        C  0.11450213  0.33894689  0.82547121     0.75800
C174        C  0.08073352  0.33564572  0.93029661     0.78200
Cd175      Cd  0.08410402  0.34065341  0.84989867     1.37500
O176        O  0.09376601  0.36896951  0.88049947    -0.56800
O177        O  0.06720303  0.33215626  0.91107408    -0.55600
C178        C  0.05244102  0.31701552  0.80449969     0.78200
O179        O  0.09454874  0.33891519  0.91209454    -0.58000
O180        O  0.08330306  0.36658578  0.82510462    -0.56400
O181        O  0.10006149  0.32542163  0.83829762    -0.56400
O182        O  0.06681808  0.33026633  0.79080308    -0.55600
O183        O  0.77403946  0.09255325  0.66311630    -0.56800
C184        C  0.74599005  0.04439873  0.68871018     0.75900
O185        O  0.72685484  0.06488563  0.74707820    -0.57900
C186        C  0.77552420  0.10737380  0.66740617     0.75800
C187        C  0.71305497  0.06799927  0.63981272     0.78200
Cd188      Cd  0.74260442  0.07458305  0.68616225     1.37500
O189        O  0.74099840  0.04799583  0.65872075    -0.56800
O190        O  0.72854295  0.07383623  0.62617586    -0.55600
C191        C  0.73892053  0.07861563  0.76447005     0.78200
O192        O  0.71124816  0.06566709  0.67508523    -0.58000
O193        O  0.75022873  0.05514879  0.71561334    -0.56400
O194        O  0.76155524  0.10681718  0.67790986    -0.56400
O195        O  0.75127266  0.09129833  0.74486728    -0.55600
O196        O  0.55419744  0.98520920  0.45782270    -0.56800
C197        C  0.57560581  0.96085228  0.42300839     0.75900
O198        O  0.60029656  0.00099043  0.36889780    -0.57900
C199        C  0.55443092  0.99936928  0.45305783     0.75800
C200        C  0.61494233  0.01943654  0.47583387     0.78200
Cd201      Cd  0.58415325  0.99688988  0.42863434     1.37500
O202        O  0.57031527  0.96756673  0.39965076    -0.56800
O203        O  0.59946769  0.00816786  0.48911693    -0.55600
C204        C  0.59015383  0.00374379  0.34946629     0.78200
O205        O  0.61632443  0.02088120  0.44035389    -0.58000
O206        O  0.58354232  0.97009499  0.45186223    -0.56400
O207        O  0.56840432  0.01238751  0.43753430    -0.56400
O208        O  0.57900825  0.00583101  0.36728386    -0.55600
O209        O  0.23107672  0.89916690  0.29922969    -0.56800
C210        C  0.25303687  0.94297687  0.26129970     0.75900
O211        O  0.29400147  0.92887277  0.28907452    -0.57900
C212        C  0.22886728  0.88402223  0.29550550     0.75800
C213        C  0.26887927  0.91475239  0.19710271     0.78200
Cd214      Cd  0.26182148  0.91677447  0.27450666     1.37500
O215        O  0.25922904  0.94242688  0.29290909    -0.56800
O216        O  0.25782361  0.90067473  0.21544834    -0.55600
C217        C  0.29221162  0.92812448  0.32447622     0.78200
O218        O  0.27869124  0.92889029  0.21585286    -0.58000
O219        O  0.25037388  0.93126653  0.23776813    -0.56400
O220        O  0.24236375  0.88386609  0.28404322    -0.56400
O221        O  0.27635893  0.92139156  0.33698285    -0.55600
O222        O  0.45457838  0.02119665  0.49695213    -0.56800
C223        C  0.43251966  0.04682475  0.53116574     0.75900
O224        O  0.39282575  0.98731999  0.51826482    -0.57900
C225        C  0.45427760  0.00716378  0.50423959     0.75800
C226        C  0.42206731  0.00567213  0.60798930     0.78200
Cd227      Cd  0.42557451  0.01128035  0.52813124     1.37500
O228        O  0.42623646  0.03746633  0.50177758    -0.56800
O229        O  0.43531640  0.00758803  0.58968017    -0.55600
C230        C  0.39382919  0.98842165  0.48267470     0.78200
O231        O  0.40934609  0.00431735  0.58900759    -0.58000
O232        O  0.43760732  0.04078732  0.55655136    -0.56400
O233        O  0.44033638  0.99466196  0.52090781    -0.56400
O234        O  0.40925400  0.99939643  0.46875184    -0.55600
O235        O  0.88590022  0.65076345  0.13082050    -0.56800
C236        C  0.90766762  0.62811294  0.09820522     0.75900
O237        O  0.93069523  0.66622697  0.04356330    -0.57900
C238        C  0.88487875  0.66414100  0.12512845     0.75800
C239        C  0.94766765  0.68633879  0.15250816     0.78200
Cd240      Cd  0.91654182  0.66422969  0.10467032     1.37500
O241        O  0.91374847  0.63656302  0.12875860    -0.56800
O242        O  0.93281201  0.67329168  0.16483851    -0.55600
C243        C  0.92193701  0.67133225  0.02590676     0.78200
O244        O  0.94827802  0.68987583  0.11782149    -0.58000
O245        O  0.90487871  0.63591905  0.07235616    -0.56400
O246        O  0.89884268  0.67801177  0.11187534    -0.56400
O247        O  0.91268885  0.67542728  0.04535900    -0.55600
O248        O  0.08162955  0.72171536  0.33397641    -0.56800
C249        C  0.11249988  0.78042047  0.32865658     0.75900
O250        O  0.06458081  0.74536586  0.29702161    -0.57900
C251        C  0.08859841  0.72088257  0.36419647     0.75800
C252        C  0.07762698  0.75040588  0.43520217     0.78200
Cd253      Cd  0.08110941  0.74803581  0.35568399     1.37500
O254        O  0.10984089  0.76521450  0.32247981    -0.56800
O255        O  0.09133974  0.76262407  0.41741752    -0.55600
C256        C  0.04896513  0.73716306  0.31156210     0.78200
O257        O  0.06445258  0.73885135  0.41570020    -0.58000
O258        O  0.09993380  0.78074844  0.34519038    -0.56400
O259        O  0.09304704  0.73305730  0.38779756    -0.56400
O260        O  0.04807338  0.73445982  0.34667654    -0.55600
O261        O  0.44040945  0.42161079  0.97015067    -0.56800
C262        C  0.41902284  0.37683674  0.01345800     0.75900
O263        O  0.39446495  0.38929598  0.06207967    -0.57900
C264        C  0.44380086  0.43671335  0.98033695     0.75800
C265        C  0.38027784  0.39461126  0.95613590     0.78200
Cd266      Cd  0.41107081  0.40363303  0.00295262     1.37500
O267        O  0.40951445  0.37580900  0.98595306    -0.56800
O268        O  0.39384603  0.39500400  0.94334398    -0.55600
C269        C  0.40416647  0.40317059  0.08168478     0.78200
O270        O  0.38093527  0.39878455  0.99039997    -0.58000
O271        O  0.42596755  0.39077285  0.03317066    -0.56400
O272        O  0.43155441  0.43672958  0.99886685    -0.56400
O273        O  0.41518264  0.41751144  0.06414034    -0.55600
O274        O  0.21776819  0.32204722  0.78813970    -0.56800
C275        C  0.23495778  0.29408912  0.75401670     0.75900
O276        O  0.23680822  0.33610129  0.69511385    -0.57900
C277        C  0.21827154  0.33619422  0.78091664     0.75800
C278        C  0.27921756  0.35271656  0.79942748     0.78200
Cd279      Cd  0.24626331  0.33122257  0.75583392     1.37500
O280        O  0.23297821  0.30177709  0.72667678    -0.56800
O281        O  0.26404217  0.34850399  0.81233232    -0.55600
C282        C  0.24996205  0.33819653  0.67613595     0.78200
O283        O  0.27936497  0.34785930  0.76607079    -0.58000
O284        O  0.24100286  0.30306557  0.78396379    -0.56400
O285        O  0.23217759  0.34851565  0.76369917    -0.56400
O286        O  0.26266550  0.33922553  0.69447362    -0.55600
O287        O  0.77690297  0.67363398  0.17013686    -0.56800
C288        C  0.75093973  0.69327808  0.22226630     0.75900
O289        O  0.72099597  0.63302164  0.17671816    -0.57900
C290        C  0.77778368  0.66000472  0.17273041     0.75800
C291        C  0.74631504  0.65207556  0.28285405     0.78200
Cd292      Cd  0.74772479  0.66033184  0.20445677     1.37500
O293        O  0.74282223  0.67951437  0.24286186    -0.56800
O294        O  0.76100547  0.66237653  0.26545617    -0.55600
C295        C  0.71643246  0.64157635  0.15665209     0.78200
O296        O  0.73211954  0.64393766  0.26324887    -0.58000
O297        O  0.75808498  0.69223522  0.19209119    -0.56400
O298        O  0.76446259  0.64631184  0.18816966    -0.56400
O299        O  0.72622426  0.65841342  0.15870311    -0.55600
O300        O  0.56348356  0.55701246  0.95704806    -0.56800
C301        C  0.58418646  0.59911984  0.91176020     0.75900
O302        O  0.62033288  0.59670145  0.95855014    -0.57900
C303        C  0.55988234  0.54161462  0.94860487     0.75800
C304        C  0.59866883  0.56936759  0.84735408     0.78200
Cd305      Cd  0.59328564  0.57344734  0.92558597     1.37500
O306        O  0.58857917  0.59232718  0.88638590    -0.56800
O307        O  0.61053835  0.58285549  0.86559782    -0.55600
C308        C  0.62391080  0.58682224  0.97619362     0.78200
O309        O  0.58600341  0.55667092  0.86636253    -0.58000
O310        O  0.58335088  0.59373202  0.94518492    -0.56400
O311        O  0.57224496  0.54091518  0.93235310    -0.56400
O312        O  0.61374253  0.57021989  0.96979294    -0.55600
O313        O  0.64738584  0.75796221  0.82405089    -0.56800
C314        C  0.62680881  0.71095307  0.85136057     0.75900
O315        O  0.68713955  0.73940439  0.84389631    -0.57900
C316        C  0.66108584  0.77377665  0.82562123     0.75800
C317        C  0.66767301  0.74783271  0.93095273     0.78200
Cd318      Cd  0.66162506  0.74373472  0.85123233     1.37500
O319        O  0.63656751  0.71615620  0.82202084    -0.56800
O320        O  0.66404341  0.75763147  0.91285799    -0.55600
C321        C  0.68537612  0.73680640  0.80872878     0.78200
O322        O  0.66996250  0.73724843  0.91187350    -0.58000
O323        O  0.63260047  0.72139888  0.87906875    -0.56400
O324        O  0.67558850  0.77577248  0.83698046    -0.56400
O325        O  0.67386052  0.73885044  0.79317446    -0.55600
O326        O  0.76455861  0.65479739  0.65892086    -0.56800
C327        C  0.71965337  0.62652389  0.62038357     0.75900
O328        O  0.73487797  0.68304857  0.63304969    -0.57900
C329        C  0.77989820  0.66826156  0.64973598     0.75800
C330        C  0.74941752  0.66923147  0.54452819     0.78200
Cd331      Cd  0.74702281  0.66398202  0.62517029     1.37500
O332        O  0.73448032  0.63377953  0.60291750    -0.56800
O333        O  0.73473862  0.66261384  0.56255365    -0.55600
C334        C  0.73637469  0.68467451  0.66840920     0.78200
O335        O  0.76353455  0.67556006  0.56398916    -0.58000
O336        O  0.71800039  0.63603662  0.64436078    -0.56400
O337        O  0.78017987  0.68069079  0.63193566    -0.56400
O338        O  0.74357738  0.67745764  0.68422579    -0.55600
O339        O  0.66332537  0.88642394  0.78444256    -0.56800
C340        C  0.68642131  0.93024942  0.74478961     0.75900
O341        O  0.63579816  0.88567143  0.70246696    -0.57900
C342        C  0.64915282  0.87090003  0.78535628     0.75800
C343        C  0.63105949  0.91256129  0.81153475     0.78200
Cd344      Cd  0.64970206  0.90200492  0.76100764     1.37500
O345        O  0.67707499  0.91782828  0.72179525    -0.56800
O346        O  0.62636727  0.90834908  0.77769726    -0.55600
C347        C  0.63864514  0.89935211  0.68494388     0.78200
O348        O  0.64383487  0.91128956  0.82253134    -0.58000
O349        O  0.67922525  0.92920469  0.77645534    -0.56400
O350        O  0.63464035  0.86953226  0.77649480    -0.56400
O351        O  0.64442390  0.91344339  0.70389945    -0.55600
O352        O  0.56649386  0.00404873  0.98535498    -0.56800
C353        C  0.61050198  0.02453774  0.02064973     0.75900
O354        O  0.56219586  0.97882251  0.07364099    -0.57900
C355        C  0.55018016  0.99127073  0.98911340     0.75800
C356        C  0.58587501  0.96568598  0.96644119     0.78200
Cd357      Cd  0.57946064  0.98852802  0.01366083     1.37500
O358        O  0.59908092  0.01649710  0.04671159    -0.56800
O359        O  0.59087144  0.96914025  0.00024043    -0.55600
C360        C  0.57414585  0.97841983  0.09197292     0.78200
O361        O  0.57725915  0.97216888  0.95432833    -0.58000
O362        O  0.60740463  0.01625369  0.98984467    -0.56400
O363        O  0.54727242  0.97677564  0.00266389    -0.56400
O364        O  0.58728824  0.98037038  0.07321191    -0.55600
O365        O  0.00151097  0.56510845  0.46832913    -0.56800
C366        C  0.02622610  0.60959754  0.43357907     0.75900
O367        O  0.97947131  0.56542693  0.37902451    -0.57900
C368        C  0.98751979  0.54953513  0.46576265     0.75800
C369        C  0.96840591  0.59019935  0.48753875     0.78200
Cd370      Cd  0.98906310  0.58090854  0.44026236     1.37500
O371        O  0.01813280  0.59758011  0.40916759    -0.56800
O372        O  0.98087731  0.58882855  0.50003659    -0.55600
C373        C  0.98266340  0.57896694  0.36041631     0.78200
O374        O  0.96478486  0.58669265  0.45300675    -0.58000
O375        O  0.01746408  0.60806118  0.46322660    -0.56400
O376        O  0.97350013  0.54827844  0.45348222    -0.56400
O377        O  0.98661282  0.59268825  0.37922910    -0.55600
O378        O  0.89848379  0.67665990  0.65502704    -0.56800
C379        C  0.94505744  0.70025407  0.68516622     0.75900
O380        O  0.89943653  0.65956337  0.74655980    -0.57900
C381        C  0.88284210  0.66340727  0.66308160     0.75800
C382        C  0.92074001  0.64137224  0.64047936     0.78200
Cd383      Cd  0.91415512  0.66444031  0.68487103     1.37500
O384        O  0.94156628  0.69050365  0.65653969    -0.56800
O385        O  0.91379871  0.64921213  0.62646779    -0.55600
C386        C  0.91048320  0.65741302  0.76397780     0.78200
O387        O  0.92352371  0.64313896  0.67551395    -0.58000
O388        O  0.93391384  0.69372293  0.71207283    -0.56400
O389        O  0.88167490  0.65004179  0.67856844    -0.56400
O390        O  0.92220209  0.65694653  0.74436217    -0.55600
O391        O  0.98627005  0.43570964  0.47935403    -0.56800
C392        C  0.96382391  0.38939602  0.51827194     0.75900
O393        O  0.01375475  0.41960434  0.44871948    -0.57900
C394        C  0.99937226  0.45151450  0.48576486     0.75800
C395        C  0.00659146  0.42393398  0.58846612     0.78200
Cd396      Cd  0.99971105  0.42088065  0.50915137     1.37500
O397        O  0.97281659  0.39141350  0.48863511    -0.56800
O398        O  0.00680790  0.43622453  0.57030187    -0.55600
C399        C  0.02405119  0.41566334  0.46359703     0.78200
O400        O  0.00580450  0.41158213  0.56931499    -0.58000
O401        O  0.97069676  0.40232400  0.54079924    -0.56400
O402        O  0.01322429  0.45326118  0.50041192    -0.56400
O403        O  0.02361487  0.41476630  0.49912829    -0.55600
O404        O  0.10384570  0.33689417  0.29508645    -0.56800
C405        C  0.05882078  0.31622603  0.25893370     0.75900
O406        O  0.08388401  0.36080491  0.33060531    -0.57900
C407        C  0.11997812  0.34947519  0.28849153     0.75800
C408        C  0.09104649  0.35917019  0.19033297     0.78200
Cd409      Cd  0.08978057  0.35166164  0.26907969     1.37500
O410        O  0.06047366  0.32445519  0.28924331    -0.56800
O411        O  0.10545261  0.36423852  0.20796974    -0.55600
C412        C  0.08203674  0.37287634  0.31770291     0.78200
O413        O  0.07684968  0.35303239  0.20990840    -0.58000
O414        O  0.07195792  0.32365132  0.23621628    -0.56400
O415        O  0.12246636  0.36388290  0.27559771    -0.56400
O416        O  0.08506223  0.37613141  0.28285276    -0.55600
O417        O  0.44068340  0.99805963  0.96656260    -0.56800
C418        C  0.39439566  0.97928005  0.93414644     0.75900
O419        O  0.42289083  0.03876391  0.96096007    -0.57900
C420        C  0.45683179  0.01135716  0.96546434     0.75800
C421        C  0.43055022  0.02421895  0.86882037     0.78200
Cd422      Cd  0.42668647  0.01392953  0.94637387     1.37500
O423        O  0.39761639  0.98591870  0.96688159    -0.56800
O424        O  0.41628643  0.01920334  0.88734490    -0.55600
C425        C  0.41848496  0.03455191  0.99511299     0.78200
O426        O  0.44389685  0.02664983  0.88717950    -0.58000
O427        O  0.40648254  0.98784438  0.90953183    -0.56400
O428        O  0.45923345  0.02637398  0.95798114    -0.56400
O429        O  0.41946725  0.02190362  0.00772978    -0.55600
O430        O  0.32413730  0.09843792  0.15066517    -0.56800
C431        C  0.30028649  0.05284255  0.18964029     0.75900
O432        O  0.36082148  0.07761328  0.17773325    -0.57900
C433        C  0.33543286  0.11416807  0.16177230     0.75800
C434        C  0.34386382  0.08604357  0.26428462     0.78200
Cd435      Cd  0.33680525  0.08382193  0.18516249     1.37500
O436        O  0.30964092  0.05616899  0.15999063    -0.56800
O437        O  0.34656178  0.09941625  0.24570688    -0.55600
C438        C  0.36122389  0.07783013  0.14221877     0.78200
O439        O  0.33990965  0.07228876  0.24567006    -0.58000
O440        O  0.30735112  0.06423459  0.21556740    -0.56400
O441        O  0.34814234  0.11623847  0.18196235    -0.56400
O442        O  0.35128346  0.08192744  0.12631062    -0.55600
O443        O  0.22803459  0.33991025  0.30516267    -0.56800
C444        C  0.27290751  0.36106697  0.33844543     0.75900
O445        O  0.25483039  0.32503491  0.39469505    -0.57900
C446        C  0.21180135  0.32731166  0.31046202     0.75800
C447        C  0.24853419  0.30212640  0.29205752     0.78200
Cd448      Cd  0.24165847  0.32545424  0.33506006     1.37500
O449        O  0.27075659  0.35104884  0.31099688    -0.56800
O450        O  0.24589252  0.30024896  0.32724684    -0.55600
C451        C  0.24087593  0.31971361  0.41458015     0.78200
O452        O  0.24682973  0.31383333  0.27659999    -0.58000
O453        O  0.26004809  0.35517242  0.36177811    -0.56400
O454        O  0.20908838  0.31314261  0.32534667    -0.56400
O455        O  0.22652166  0.31513076  0.39727791    -0.55600
O456        O  0.32825034  0.22268528  0.14201074    -0.56800
C457        C  0.35622648  0.26763897  0.09773425     0.75900
O458        O  0.30843876  0.22313983  0.04584788    -0.57900
C459        C  0.31626034  0.20727554  0.13034925     0.75800
C460        C  0.29644887  0.24860505  0.14761293     0.78200
Cd461      Cd  0.31869683  0.23933370  0.10580734     1.37500
O462        O  0.34785008  0.26685519  0.12748385    -0.56800
O463        O  0.29611745  0.24770653  0.11210857    -0.55600
C464        C  0.31225874  0.23672974  0.02657562     0.78200
O465        O  0.30622921  0.24439598  0.16387131    -0.58000
O466        O  0.34772327  0.25503830  0.07475811    -0.56400
O467        O  0.30423648  0.20628091  0.10951944    -0.56400
O468        O  0.31721966  0.25094574  0.04448034    -0.55600
C469        C  0.26188635  0.28245772  0.22269912     0.21400
C470        C  0.26598157  0.27938698  0.18635860    -0.38500
C471        C  0.27338579  0.26897785  0.18437480     0.20400
C472        C  0.27666214  0.26234006  0.21624922     0.23000
C473        C  0.27256976  0.26541922  0.25261112    -0.39000
C474        C  0.26496713  0.27565534  0.25456425     0.21800
N475        N  0.25521667  0.29231877  0.23207973    -0.32300
C476        C  0.25391214  0.29173905  0.27015964    -0.09800
C477        C  0.25985737  0.28144653  0.28526565    -0.28600
N478        N  0.28467818  0.25369643  0.20700424    -0.45200
C479        C  0.28650665  0.25477534  0.16898866    -0.04500
C480        C  0.27949334  0.26411101  0.15380254    -0.21900
H481        H  0.26378240  0.28490089  0.16148914     0.19900
H482        H  0.27532951  0.26041328  0.27756616     0.18700
H483        H  0.26086748  0.27903515  0.31470087     0.15000
H484        H  0.27962891  0.26759246  0.12457718     0.14900
H485        H  0.25206246  0.29931410  0.21371819     0.33000
H486        H  0.28911862  0.24786075  0.22552156     0.35800
C487        C  0.31526597  0.16673767  0.13143574     0.21400
C488        C  0.31120153  0.15004529  0.11840214    -0.38500
C489        C  0.32145044  0.14393677  0.13392070     0.20400
C490        C  0.33484933  0.15382061  0.15997378     0.23000
C491        C  0.33884881  0.17041732  0.17299936    -0.39000
C492        C  0.32851947  0.17641108  0.15786388     0.21800
N493        N  0.30816048  0.17596054  0.11998027    -0.32300
C494        C  0.31711193  0.19164470  0.13912977    -0.09800
C495        C  0.32972796  0.19226636  0.16328227    -0.28600
N496        N  0.34225344  0.14492232  0.17140321    -0.45200
C497        C  0.33333309  0.12907179  0.15306868    -0.04500
C498        C  0.32033495  0.12801166  0.12919271    -0.21900
H499        H  0.30081510  0.14236745  0.09783585     0.19900
H500        H  0.34927467  0.17812851  0.19347062     0.18700
H501        H  0.33930836  0.20333641  0.18072748     0.15000
H502        H  0.31080548  0.11677534  0.11204679     0.14900
H503        H  0.29861142  0.17228519  0.09891856     0.33000
H504        H  0.35213012  0.14899915  0.19189395     0.35800
C505        C  0.40044754  0.04910142  0.06590074     0.21400
C506        C  0.39459393  0.05023702  0.10203789    -0.38500
C507        C  0.38635655  0.05987245  0.10456093     0.20400
C508        C  0.38375835  0.06741570  0.07332185     0.23000
C509        C  0.38954100  0.06621119  0.03717860    -0.39000
C510        C  0.39815463  0.05694591  0.03480289     0.21800
N511        N  0.40852990  0.04059682  0.05596641    -0.32300
C512        C  0.41159119  0.04322364  0.01835728    -0.09800
C513        C  0.40531432  0.05336623  0.00415502    -0.28600
N514        N  0.37497834  0.07526278  0.08292309    -0.45200
C515        C  0.37207827  0.07283729  0.12059393    -0.04500
C516        C  0.37906567  0.06336881  0.13513858    -0.21900
H517        H  0.39632522  0.04407649  0.12638398     0.19900
H518        H  0.38748527  0.07206037  0.01270352     0.18700
H519        H  0.40538380  0.05705117  0.97511401     0.15000
H520        H  0.37827391  0.05902218  0.16392377     0.14900
H521        H  0.41148630  0.03319145  0.07353857     0.33000
H522        H  0.37088948  0.08157195  0.06485717     0.35800
C523        C  0.14828853  0.33305501  0.30049792     0.21400
C524        C  0.15220560  0.32003891  0.30669954    -0.38500
C525        C  0.17028602  0.32573117  0.30157945     0.20400
C526        C  0.18343701  0.34306501  0.29092781     0.23000
C527        C  0.17949148  0.35606690  0.28444085    -0.39000
C528        C  0.16139328  0.35037461  0.28967592     0.21800
N529        N  0.13211481  0.33090948  0.30322186    -0.32300
C530        C  0.13484097  0.34690559  0.29377020    -0.09800
C531        C  0.15296865  0.35944585  0.28526051    -0.28600
N532        N  0.19975241  0.34542842  0.29049969    -0.45200
C533        C  0.19700972  0.32956607  0.30136939    -0.04500
C534        C  0.17876088  0.31687003  0.30807220    -0.21900
H535        H  0.14196831  0.30654405  0.31547216     0.19900
H536        H  0.18979312  0.36966440  0.27643234     0.18700
H537        H  0.15902416  0.37311424  0.27584589     0.15000
H538        H  0.17267712  0.30335696  0.31854018     0.14900
H539        H  0.11984174  0.31908870  0.30983836     0.33000
H540        H  0.21211316  0.35738376  0.28520573     0.35800
C541        C  0.05081710  0.40038825  0.42557340     0.21400
C542        C  0.05907717  0.39074376  0.42557362    -0.38500
C543        C  0.06542701  0.38904907  0.39054111     0.20400
C544        C  0.06378894  0.39649939  0.35796580     0.23000
C545        C  0.05535238  0.40600715  0.35788600    -0.39000
C546        C  0.04886521  0.40758896  0.39294469     0.21800
N547        N  0.04288805  0.40304550  0.45492419    -0.32300
C548        C  0.03554770  0.41175174  0.44096171    -0.09800
C549        C  0.03905007  0.41489472  0.40235827    -0.28600
N550        N  0.07026439  0.39236202  0.32811355    -0.45200
C551        C  0.07591124  0.38207066  0.34171649    -0.04500
C552        C  0.07311383  0.37972161  0.38056339    -0.21900
H553        H  0.06009905  0.38463711  0.45087767     0.19900
H554        H  0.05357341  0.41138789  0.33227220     0.18700
H555        H  0.03452395  0.42114010  0.38354662     0.15000
H556        H  0.07572491  0.37171528  0.39880144     0.14900
H557        H  0.04185567  0.39852134  0.48251075     0.33000
H558        H  0.07015534  0.39570110  0.29999623     0.35800
C559        C  0.98612993  0.48235807  0.47402593     0.21400
C560        C  0.97398284  0.48775849  0.47127287    -0.38500
C561        C  0.98152306  0.50618862  0.47495186     0.20400
C562        C  0.99973514  0.51822358  0.48119672     0.23000
C563        C  0.01184563  0.51282694  0.48401129    -0.39000
C564        C  0.00433482  0.49445009  0.48017247     0.21800
N565        N  0.98228832  0.46558528  0.47275976    -0.32300
C566        C  0.99811322  0.46700077  0.47863798    -0.09800
C567        C  0.01220732  0.48482269  0.48302284    -0.28600
N568        N  0.00377946  0.53504376  0.48142334    -0.45200
C569        C  0.98813532  0.53382216  0.47460165    -0.04500
C570        C  0.97386014  0.51600465  0.47089605    -0.21900
H571        H  0.95975912  0.47833407  0.46625902     0.19900
H572        H  0.02610260  0.52227334  0.48862379     0.18700
H573        H  0.02613739  0.48994767  0.48936636     0.15000
H574        H  0.96004221  0.51101078  0.46375385     0.14900
H575        H  0.96953659  0.45382777  0.47007230     0.33000
H576        H  0.01662354  0.54672098  0.48370653     0.35800
C577        C  0.94422620  0.60745563  0.53013669     0.21400
C578        C  0.93434475  0.61548351  0.53139968    -0.38500
C579        C  0.93205392  0.62066804  0.56722495     0.20400
C580        C  0.93912926  0.61812864  0.59932978     0.23000
C581        C  0.94919109  0.61030877  0.59802118    -0.39000
C582        C  0.95142696  0.60507333  0.56223135     0.21800
N583        N  0.94873045  0.60181390  0.49945672    -0.32300
C584        C  0.95903310  0.59597924  0.51210664    -0.09800
C585        C  0.96095397  0.59775488  0.55110048    -0.28600
N586        N  0.93543669  0.62459312  0.62975203    -0.45200
C587        C  0.92598969  0.63135430  0.61691572    -0.04500
C588        C  0.92361703  0.62915936  0.57806848    -0.21900
H589        H  0.92898813  0.61769462  0.50629907     0.19900
H590        H  0.95502454  0.60860850  0.62296960     0.18700
H591        H  0.96872716  0.59459609  0.56877657     0.15000
H592        H  0.91705711  0.63364003  0.56006231     0.14900
H593        H  0.94555048  0.60249136  0.47153768     0.33000
H594        H  0.93953932  0.62486168  0.65735031     0.35800
C595        C  0.52149176  0.00677787  0.97014486     0.21400
C596        C  0.51724664  0.01967133  0.96523553    -0.38500
C597        C  0.49891149  0.01341816  0.96895645     0.20400
C598        C  0.48586226  0.99565954  0.97668499     0.23000
C599        C  0.49009638  0.98279438  0.98153560    -0.39000
C600        C  0.50840292  0.98905712  0.97811839     0.21800
N601        N  0.53798613  0.00952745  0.97069410    -0.32300
C602        C  0.53539621  0.99352152  0.97969529    -0.09800
C603        C  0.51709555  0.98037248  0.98406864    -0.28600
N604        N  0.46941854  0.99296631  0.97803532    -0.45200
C605        C  0.47190142  0.00907361  0.97100533    -0.04500
C606        C  0.49016502  0.02223868  0.96543416    -0.21900
H607        H  0.52748696  0.03357755  0.95946384     0.19900
H608        H  0.47989842  0.96896185  0.98807229     0.18700
H609        H  0.51105439  0.96659764  0.99268084     0.15000
H610        H  0.49613436  0.03617695  0.95833369     0.14900
H611        H  0.55030364  0.02175469  0.96730089     0.33000
H612        H  0.45716388  0.98077021  0.98233622     0.35800
C613        C  0.60323221  0.94162768  0.92435028     0.21400
C614        C  0.61386176  0.93443272  0.92245147    -0.38500
C615        C  0.61546288  0.92861812  0.88683437     0.20400
C616        C  0.60701283  0.92975206  0.85544093     0.23000
C617        C  0.59641704  0.93704247  0.85728939    -0.39000
C618        C  0.59488692  0.94296101  0.89298796     0.21800
N619        N  0.60045608  0.94891789  0.95455467    -0.32300
C620        C  0.59039255  0.95511830  0.94249458    -0.09800
C621        C  0.58653883  0.95155555  0.90422749    -0.28600
N622        N  0.61111156  0.92375529  0.82473270    -0.45200
C623        C  0.62235838  0.91891279  0.83665987    -0.04500
C624        C  0.62537713  0.92176327  0.87522865    -0.21900
H625        H  0.62071152  0.93376487  0.94681239     0.19900
H626        H  0.59013651  0.93834160  0.83263358     0.18700
H627        H  0.57924494  0.95536636  0.88671825     0.15000
H628        H  0.63395546  0.91945658  0.89232590     0.14900
H629        H  0.60565609  0.95018162  0.98148011     0.33000
H630        H  0.60691398  0.92342293  0.79719562     0.35800
C631        C  0.82379906  0.67590571  0.65135187     0.21400
C632        C  0.84211468  0.68434870  0.64165204    -0.38500
C633        C  0.84968364  0.67434367  0.64843113     0.20400
C634        C  0.83975144  0.65726630  0.66365526     0.23000
C635        C  0.82151772  0.64888113  0.67344756    -0.39000
C636        C  0.81397605  0.65886794  0.66676205     0.21800
N637        N  0.81313550  0.68204061  0.64562847    -0.32300
C638        C  0.79642156  0.66873796  0.65730518    -0.09800
C639        C  0.79648676  0.65417958  0.67104387    -0.28600
N640        N  0.85012778  0.65080455  0.66861300    -0.45200
C641        C  0.86683710  0.66390478  0.65679448    -0.04500
C642        C  0.86710707  0.67876172  0.64370673    -0.21900
H643        H  0.84986164  0.69766115  0.62957985     0.19900
H644        H  0.81374146  0.63551120  0.68523682     0.18700
H645        H  0.78502641  0.64139836  0.68045738     0.15000
H646        H  0.87866235  0.69140426  0.63396814     0.14900
H647        H  0.81677802  0.69407836  0.63268420     0.33000
H648        H  0.84627094  0.63858241  0.68094930     0.35800
C649        C  0.64798595  0.80410019  0.80541431     0.21400
C650        C  0.63593039  0.80933876  0.79871411    -0.38500
C651        C  0.64344133  0.82783104  0.79937534     0.20400
C652        C  0.66156160  0.84007487  0.80616388     0.23000
C653        C  0.67357406  0.83483463  0.81297622    -0.39000
C654        C  0.66607838  0.81639055  0.81235134     0.21800
N655        N  0.64413153  0.78735481  0.80750468    -0.32300
C656        C  0.65984544  0.78902627  0.81615064    -0.09800
C657        C  0.67387371  0.80693101  0.81917865    -0.28600
N658        N  0.66557026  0.85684660  0.80369396    -0.45200
C659        C  0.64996214  0.85536567  0.79502545    -0.04500
C660        C  0.63577030  0.83745138  0.79243904    -0.21900
H661        H  0.62178210  0.79973844  0.79329396     0.19900
H662        H  0.68773246  0.84443052  0.81831030     0.18700
H663        H  0.68770451  0.81226409  0.82687273     0.15000
H664        H  0.62195424  0.83221751  0.78480712     0.14900
H665        H  0.63146013  0.77550918  0.80466646     0.33000
H666        H  0.67831703  0.86861754  0.80633750     0.35800
C667        C  0.70227120  0.71960932  0.74122475     0.21400
C668        C  0.70285631  0.71238138  0.70656527    -0.38500
C669        C  0.71424432  0.70606646  0.70469010     0.20400
C670        C  0.72415105  0.70664598  0.73516760     0.23000
C671        C  0.72357018  0.71390939  0.76997427    -0.39000
C672        C  0.71226440  0.72041050  0.77175632     0.21800
N673        N  0.69206804  0.72597649  0.75029415    -0.32300
C674        C  0.69547045  0.73089459  0.78692026    -0.09800
C675        C  0.70806197  0.72766623  0.80133012    -0.28600
N676        N  0.73348339  0.69923373  0.72626752    -0.45200
C677        C  0.72960143  0.69409366  0.68974898    -0.04500
C678        C  0.71766901  0.69816896  0.67541720    -0.21900
H679        H  0.69489580  0.71159992  0.68282661     0.19900
H680        H  0.73119115  0.71429081  0.79398676     0.18700
H681        H  0.71297406  0.72974768  0.82986836     0.15000
H682        H  0.71195131  0.69535915  0.64752079     0.14900
H683        H  0.68287620  0.72640653  0.73291105     0.33000
H684        H  0.74188385  0.69768193  0.74394129     0.35800
C685        C  0.58381714  0.63423147  0.86729335     0.21400
C686        C  0.58949117  0.64661272  0.83777339    -0.38500
C687        C  0.59453911  0.66385768  0.84801391     0.20400
C688        C  0.59345222  0.66828121  0.88491225     0.23000
C689        C  0.58760994  0.65581608  0.91440545    -0.39000
C690        C  0.58308227  0.63869874  0.90431368     0.21800
N691        N  0.58230435  0.61851354  0.86568388    -0.32300
C692        C  0.58115580  0.61314216  0.90179635    -0.09800
C693        C  0.58116716  0.62515991  0.92680989    -0.28600
N694        N  0.60271972  0.68607837  0.88885257    -0.45200
C695        C  0.61047343  0.69302205  0.85489013    -0.04500
C696        C  0.60516640  0.67960459  0.82830827    -0.21900
H697        H  0.59179517  0.64357814  0.80961510     0.19900
H698        H  0.58851215  0.65973696  0.94356131     0.18700
H699        H  0.58205965  0.62517961  0.95717819     0.15000
H700        H  0.61078156  0.68105918  0.80033837     0.14900
H701        H  0.58403953  0.61281519  0.84168981     0.33000
H702        H  0.60588590  0.69296026  0.91435496     0.35800
C703        C  0.75575131  0.65907315  0.38061226     0.21400
C704        C  0.76684381  0.66707091  0.41203938    -0.38500
C705        C  0.75805573  0.66676076  0.44535892     0.20400
C706        C  0.73962512  0.65906824  0.44713216     0.23000
C707        C  0.72851741  0.65099660  0.41574242    -0.39000
C708        C  0.73729962  0.65127073  0.38244303     0.21800
N709        N  0.76102878  0.65890658  0.34516070    -0.32300
C710        C  0.74588187  0.65103606  0.32415258    -0.09800
C711        C  0.73074411  0.64586269  0.34650626    -0.28600
N712        N  0.73447074  0.66006300  0.48221729    -0.45200
C713        C  0.74967361  0.66833148  0.50311243    -0.04500
C714        C  0.76470733  0.67281014  0.48102083    -0.21900
H715        H  0.78128423  0.67325078  0.41053796     0.19900
H716        H  0.71412185  0.64510566  0.41706708     0.18700
H717        H  0.71709101  0.64037526  0.33721662     0.15000
H718        H  0.77845792  0.67880662  0.49020840     0.14900
H719        H  0.77428305  0.66486547  0.33543569     0.33000
H720        H  0.72127966  0.65468506  0.49176224     0.35800
C721        C  0.67971698  0.61259336  0.09622733     0.21400
C722        C  0.66770389  0.59674643  0.07667314    -0.38500
C723        C  0.65753482  0.59819541  0.04848128     0.20400
C724        C  0.65931684  0.61424565  0.04050793     0.23000
C725        C  0.67123637  0.63002783  0.06007852    -0.39000
C726        C  0.68135407  0.62856975  0.08813957     0.21800
N727        N  0.69148896  0.61498490  0.12297066    -0.32300
C728        C  0.70079992  0.63263943  0.13150844    -0.09800
C729        C  0.69470971  0.64149953  0.11068315    -0.28600
N730        N  0.64806244  0.61216754  0.01302692    -0.45200
C731        C  0.63880986  0.59464214  0.00345187    -0.04500
C732        C  0.64440889  0.58544855  0.02483614    -0.21900
H733        H  0.66645223  0.58425362  0.08280114     0.19900
H734        H  0.67264266  0.64257284  0.05366999     0.18700
H735        H  0.69988143  0.65563708  0.11088888     0.15000
H736        H  0.63926513  0.57132907  0.02391528     0.14900
H737        H  0.69357593  0.60537933  0.13361339     0.33000
H738        H  0.64640156  0.62202268  0.00214813     0.35800
C739        C  0.25591680  0.33491575  0.57771259     0.21400
C740        C  0.26402327  0.33334697  0.54510520    -0.38500
C741        C  0.25333074  0.32760480  0.51270711     0.20400
C742        C  0.23590120  0.32366634  0.51285421     0.23000
C743        C  0.22788424  0.32539994  0.54529982    -0.39000
C744        C  0.23857405  0.33119947  0.57758751     0.21800
N745        N  0.26276657  0.33908782  0.61262139    -0.32300
C746        C  0.24966028  0.33801035  0.63476560    -0.09800
C747        C  0.23445485  0.33328077  0.61381987    -0.28600
N748        N  0.22875573  0.31901592  0.47832348    -0.45200
C749        C  0.24179389  0.32021956  0.45584359    -0.04500
C750        C  0.25729568  0.32544274  0.47630469    -0.21900
H751        H  0.27760518  0.33630908  0.54499381     0.19900
H752        H  0.21427649  0.32236920  0.54544213     0.18700
H753        H  0.22165688  0.33053962  0.62418998     0.15000
H754        H  0.27007009  0.32826259  0.46557232     0.14900
H755        H  0.27518363  0.34159320  0.62117766     0.33000
H756        H  0.21618063  0.31621984  0.47013545     0.35800
C757        C  0.41130714  0.33414117  0.02712744     0.21400
C758        C  0.40123060  0.31586764  0.01889457    -0.38500
C759        C  0.39410742  0.30428641  0.04990044     0.20400
C760        C  0.39671227  0.31038764  0.08665670     0.23000
C761        C  0.40760811  0.32867843  0.09498888    -0.39000
C762        C  0.41479244  0.34030375  0.06389234     0.21800
N763        N  0.41481363  0.34733107  0.00320367    -0.32300
C764        C  0.42039795  0.36189589  0.02484148    -0.09800
C765        C  0.42128147  0.35822398  0.06257970    -0.28600
N766        N  0.38459952  0.29730852  0.10995286    -0.45200
C767        C  0.37427463  0.28293892  0.08767896    -0.04500
C768        C  0.38022066  0.28664059  0.05042453    -0.21900
H769        H  0.39728123  0.31106043  0.99040199     0.19900
H770        H  0.40854107  0.33359390  0.12330102     0.18700
H771        H  0.42306429  0.36658560  0.08643076     0.15000
H772        H  0.37336522  0.27844087  0.02610359     0.14900
H773        H  0.41120224  0.34586765  0.97488303     0.33000
H774        H  0.38212663  0.29871796  0.13812167     0.35800
C775        C  0.48384468  0.48074696  0.97526121     0.21400
C776        C  0.49531584  0.49901601  0.98372344    -0.38500
C777        C  0.51322198  0.50732480  0.97099501     0.20400
C778        C  0.51920898  0.49812899  0.95131998     0.23000
C779        C  0.50774402  0.47990240  0.94276739    -0.39000
C780        C  0.48987451  0.47159598  0.95555761     0.21800
N781        N  0.46642754  0.46963791  0.98538446    -0.32300
C782        C  0.46137753  0.45329501  0.97215376    -0.09800
C783        C  0.47562557  0.45401108  0.95329245    -0.28600
N784        N  0.53673141  0.50904953  0.94204106    -0.45200
C785        C  0.54196494  0.52534614  0.95579440    -0.04500
C786        C  0.52767672  0.52481701  0.97404881    -0.21900
H787        H  0.49067497  0.50619889  0.99926974     0.19900
H788        H  0.51243109  0.47268171  0.92753248     0.18700
H789        H  0.47572230  0.44301209  0.94080826     0.15000
H790        H  0.52775696  0.53582646  0.98699669     0.14900
H791        H  0.45863601  0.47284508  0.00135305     0.33000
H792        H  0.54453510  0.50572706  0.92646478     0.35800
C793        C  0.34791407  0.38191157  0.88291460     0.21400
C794        C  0.34122086  0.37738479  0.84616267    -0.38500
C795        C  0.32338428  0.37248728  0.84143508     0.20400
C796        C  0.31293415  0.37209131  0.87107211     0.23000
C797        C  0.31965317  0.37665816  0.90795791    -0.39000
C798        C  0.33757453  0.38161580  0.91268181     0.21800
N799        N  0.36430953  0.38660210  0.89467392    -0.32300
C800        C  0.36458394  0.38945239  0.93221723    -0.09800
C801        C  0.34811215  0.38645514  0.94455758    -0.28600
N802        N  0.29605433  0.36586074  0.85950387    -0.45200
C803        C  0.29574550  0.36212751  0.82233167    -0.04500
C804        C  0.31260864  0.36626169  0.81004822    -0.21900
H805        H  0.34921960  0.37733740  0.82302564     0.19900
H806        H  0.31144040  0.37608439  0.93134347     0.18700
H807        H  0.34429894  0.38745589  0.97301823     0.15000
H808        H  0.31622979  0.36409216  0.78234262     0.14900
H809        H  0.37468867  0.38772643  0.87814120     0.33000
H810        H  0.28520043  0.36349760  0.87622712     0.35800
C811        C  0.08155459  0.67826074  0.37244565     0.21400
C812        C  0.07209395  0.66029951  0.36173158    -0.38500
C813        C  0.06458125  0.64779102  0.39109612     0.20400
C814        C  0.06622509  0.65275957  0.42857498     0.23000
C815        C  0.07647254  0.67073880  0.43941694    -0.39000
C816        C  0.08408423  0.68327167  0.40999845     0.21800
N817        N  0.08525322  0.69204661  0.35023083    -0.32300
C818        C  0.08995736  0.70578549  0.37381580    -0.09800
C819        C  0.09014372  0.70105162  0.41107453    -0.28600
N820        N  0.05385934  0.63890689  0.44989715    -0.45200
C821        C  0.04431726  0.62519236  0.42567613    -0.04500
C822        C  0.05104572  0.63004835  0.38912188    -0.21900
H823        H  0.06886479  0.65634074  0.33259299     0.19900
H824        H  0.07660936  0.67472134  0.46827318     0.18700
H825        H  0.09123085  0.70858020  0.43596751     0.15000
H826        H  0.04485401  0.62252187  0.36369386     0.14900
H827        H  0.08228959  0.69141010  0.32165143     0.33000
H828        H  0.05065289  0.63940651  0.47804788     0.35800
C829        C  0.92408044  0.66452633  0.92794325     0.21400
C830        C  0.92960149  0.65996211  0.89525782    -0.38500
C831        C  0.92001699  0.65822237  0.86266366     0.20400
C832        C  0.90584491  0.66060078  0.86267493     0.23000
C833        C  0.90022238  0.66502975  0.89545947    -0.39000
C834        C  0.91001051  0.66705168  0.92794924     0.21800
N835        N  0.93094096  0.66685497  0.96257561    -0.32300
C836        C  0.92121103  0.67096927  0.98473182    -0.09800
C837        C  0.90808498  0.67129134  0.96413800    -0.28600
N838        N  0.89982354  0.65945477  0.82757177    -0.45200
C839        C  0.91037692  0.65650459  0.80513842    -0.04500
C840        C  0.92301198  0.65550764  0.82601055    -0.21900
H841        H  0.94079010  0.65827588  0.89504733     0.19900
H842        H  0.88931217  0.66713579  0.89549664     0.18700
H843        H  0.89788130  0.67337470  0.97465508     0.15000
H844        H  0.93370325  0.65416268  0.81549403     0.14900
H845        H  0.94113087  0.66508393  0.97089661     0.33000
H846        H  0.88990165  0.66160694  0.81916244     0.35800
C847        C  0.01604451  0.72618664  0.24035376     0.21400
C848        C  0.00974082  0.72615644  0.20410969    -0.38500
C849        C  0.99112109  0.71417947  0.19862009     0.20400
C850        C  0.97972791  0.70308323  0.22712528     0.23000
C851        C  0.98600382  0.70317967  0.26335599    -0.39000
C852        C  0.00457457  0.71519775  0.26888429     0.21800
N853        N  0.03322389  0.73567415  0.25220482    -0.32300
C854        C  0.03271679  0.73078910  0.28858544    -0.09800
C855        C  0.01503851  0.71809070  0.30005566    -0.28600
N856        N  0.96284185  0.69227298  0.21441993    -0.45200
C857        C  0.96336656  0.69639725  0.17751106    -0.04500
C858        C  0.98079277  0.71011355  0.16660402    -0.21900
H859        H  0.01873472  0.73455853  0.18162517     0.19900
H860        H  0.97711887  0.69428001  0.28542719     0.18700
H861        H  0.01054110  0.71139223  0.32707370     0.15000
H862        H  0.98540204  0.71584466  0.13877394     0.14900
H863        H  0.04465662  0.74466899  0.23628614     0.33000
H864        H  0.95170826  0.68228729  0.22969859     0.35800
C865        C  0.84873487  0.67076426  0.13456725     0.21400
C866        C  0.84008615  0.68001710  0.13276200    -0.38500
C867        C  0.82173824  0.67012450  0.14293469     0.20400
C868        C  0.81269843  0.65236261  0.15394254     0.23000
C869        C  0.82133679  0.64310947  0.15567951    -0.39000
C870        C  0.83968131  0.65301602  0.14566975     0.21800
N871        N  0.86610954  0.67714926  0.12652565    -0.32300
C872        C  0.86810921  0.66335849  0.13263032    -0.09800
C873        C  0.85193146  0.64809979  0.14462071    -0.28600
N874        N  0.79562053  0.64625441  0.16415719    -0.45200
C875        C  0.79378204  0.66025236  0.15992663    -0.04500
C876        C  0.80974482  0.67533210  0.14641854    -0.21900
H877        H  0.84718141  0.69396173  0.12459684     0.19900
H878        H  0.81435504  0.62928775  0.16471655     0.18700
H879        H  0.84941963  0.63508908  0.15113299     0.15000
H880        H  0.81247368  0.68855921  0.14165159     0.14900
H881        H  0.87593953  0.69001311  0.11708485     0.33000
H882        H  0.78604775  0.63357490  0.17490645     0.35800
C883        C  0.43325654  0.01417909  0.70493360     0.21400
C884        C  0.44484667  0.02064006  0.73588902    -0.38500
C885        C  0.43762136  0.02273986  0.76921166     0.20400
C886        C  0.42016978  0.01867788  0.77151979     0.23000
C887        C  0.40858411  0.01224395  0.74052168    -0.39000
C888        C  0.41583035  0.01018832  0.70715557     0.21800
N889        N  0.43716540  0.01175251  0.66976885    -0.32300
C890        C  0.42221064  0.00639481  0.64929789    -0.09800
C891        C  0.40854855  0.00510954  0.67171156    -0.28600
N892        N  0.41605416  0.02042164  0.80703692    -0.45200
C893        C  0.43090406  0.02540892  0.82758012    -0.04500
C894        C  0.44473207  0.02725429  0.80484239    -0.21900
H895        H  0.45843582  0.02365276  0.73423717     0.19900
H896        H  0.39490118  0.00896576  0.74232515     0.18700
H897        H  0.39547578  0.00194192  0.66280457     0.15000
H898        H  0.45761458  0.02990407  0.81374827     0.14900
H899        H  0.44959836  0.01458503  0.65983820     0.33000
H900        H  0.40346091  0.01705204  0.81715838     0.35800
C901        C  0.25178257  0.97717438  0.21432994     0.21400
C902        C  0.25714625  0.98882059  0.18342100    -0.38500
C903        C  0.26392036  0.00673048  0.19186512     0.20400
C904        C  0.26446577  0.01245577  0.22842579     0.23000
C905        C  0.25866948  0.00068730  0.25923672    -0.39000
C906        C  0.25278333  0.98298394  0.25095004     0.21800
N907        N  0.24962721  0.96111362  0.21415550    -0.32300
C908        C  0.25005758  0.95700389  0.25065216    -0.09800
C909        C  0.25155005  0.97009258  0.27455377    -0.28600
N910        N  0.27551884  0.03031319  0.23038825    -0.45200
C911        C  0.28282461  0.03592648  0.19553871    -0.04500
C912        C  0.27536569  0.02169573  0.17038096    -0.21900
H913        H  0.25831573  0.98473530  0.15541976     0.19900
H914        H  0.26098565  0.00551642  0.28791474     0.18700
H915        H  0.25384224  0.97116887  0.30458942     0.15000
H916        H  0.28008454  0.02184308  0.14208440     0.14900
H917        H  0.25027247  0.95450539  0.19051766     0.33000
H918        H  0.28008636  0.03778702  0.25514267     0.35800
C919        C  0.15838728  0.81399129  0.30791027     0.21400
C920        C  0.17665422  0.82069570  0.30105214    -0.38500
C921        C  0.18850709  0.83931008  0.30378520     0.20400
C922        C  0.18255365  0.85033846  0.31262987     0.23000
C923        C  0.16431784  0.84362380  0.31975546    -0.39000
C924        C  0.15248225  0.82502097  0.31714070     0.21800
N925        N  0.14459268  0.79677813  0.30856415    -0.32300
C926        C  0.12985473  0.79681211  0.31886891    -0.09800
C927        C  0.13419556  0.81419633  0.32420810    -0.28600
N928        N  0.19633318  0.86755086  0.31220175    -0.45200
C929        C  0.21118117  0.86754079  0.30290710    -0.04500
C930        C  0.20688644  0.85015476  0.29765913    -0.21900
H931        H  0.18128630  0.81205295  0.29414950     0.19900
H932        H  0.15970286  0.85225193  0.32694904     0.18700
H933        H  0.12536873  0.81829190  0.33377055     0.15000
H934        H  0.21585330  0.84606808  0.28914260     0.14900
H935        H  0.14533107  0.78563566  0.30419795     0.33000
H936        H  0.19558614  0.87867646  0.31676256     0.35800
C937        C  0.35060646  0.96047539  0.43939009     0.21400
C938        C  0.33173899  0.94889878  0.43735633    -0.38500
C939        C  0.32454687  0.94449961  0.40087886     0.20400
C940        C  0.33532837  0.95114043  0.36890684     0.23000
C941        C  0.35414685  0.96277316  0.37093424    -0.39000
C942        C  0.36131804  0.96712942  0.40732919     0.21800
N943        N  0.36075232  0.96694732  0.47058263    -0.32300
C944        C  0.37803522  0.97779966  0.45817494    -0.09800
C945        C  0.37887906  0.97824042  0.41892241    -0.28600
N946        N  0.32522428  0.94552387  0.33767171    -0.45200
C947        C  0.30783741  0.93533722  0.34972816    -0.04500
C948        C  0.30688067  0.93431239  0.38900129    -0.21900
H949        H  0.32326389  0.94386189  0.46231063     0.19900
H950        H  0.36258201  0.96820376  0.34598554     0.18700
H951        H  0.39076034  0.98586873  0.40122826     0.15000
H952        H  0.29485703  0.92756022  0.40650605     0.14900
H953        H  0.35619465  0.96435749  0.49849716     0.33000
H954        H  0.32983974  0.94897070  0.30989467     0.35800
C955        C  0.48716282  0.99601151  0.49384678     0.21400
C956        C  0.49458124  0.98565040  0.49742014    -0.38500
C957        C  0.51239154  0.99367065  0.48420091     0.20400
C958        C  0.52209096  0.01076962  0.46906643     0.23000
C959        C  0.51471207  0.02112903  0.46568586    -0.39000
C960        C  0.49687763  0.01304741  0.47843736     0.21800
N961        N  0.47051291  0.99148146  0.50403815    -0.32300
C962        C  0.46967132  0.00575252  0.49500570    -0.09800
C963        C  0.48583347  0.01942147  0.47886951    -0.28600
N964        N  0.53843836  0.01510891  0.45718290    -0.45200
C965        C  0.53915069  0.00063078  0.46438538    -0.04500
C966        C  0.52319938  0.98700717  0.48148733    -0.21900
H967        H  0.48696372  0.97224707  0.50905796     0.19900
H968        H  0.52222427  0.03441877  0.45347600     0.18700
H969        H  0.48918288  0.03242984  0.46951005     0.15000
H970        H  0.51977322  0.97383151  0.48969406     0.14900
H971        H  0.46046789  0.97956893  0.51693971     0.33000
H972        H  0.54830098  0.02699256  0.44388978     0.35800
C973        C  0.57793269  0.99553113  0.25330719     0.21400
C974        C  0.56609837  0.99066291  0.22305681    -0.38500
C975        C  0.57031375  0.98451849  0.19089268     0.20400
C976        C  0.58525299  0.98339442  0.18890602     0.23000
C977        C  0.59700648  0.98808028  0.21938834    -0.39000
C978        C  0.59272400  0.99415731  0.25168078     0.21800
N979        N  0.57631859  0.00092852  0.28750414    -0.32300
C980        C  0.58994442  0.00267380  0.30819921    -0.09800
C981        C  0.60061703  0.99876139  0.28668090    -0.28600
N982        N  0.58736971  0.97906512  0.15388187    -0.45200
C983        C  0.57381111  0.97763911  0.13335144    -0.04500
C984        C  0.56267339  0.98055922  0.15574195    -0.21900
H985        H  0.55456957  0.99180370  0.22430653     0.19900
H986        H  0.60871861  0.98724492  0.21792144     0.18700
H987        H  0.61174975  0.99801630  0.29617441     0.15000
H988        H  0.55170008  0.98164067  0.14658429     0.14900
H989        H  0.56577041  0.00200572  0.29701006     0.33000
H990        H  0.59827165  0.97870687  0.14381840     0.35800
C991        C  0.73744888  0.00068619  0.68564152     0.21400
C992        C  0.72806169  0.98308722  0.67213797    -0.38500
C993        C  0.72231977  0.96962912  0.69944232     0.20400
C994        C  0.72584219  0.97348423  0.73741528     0.23000
C995        C  0.73589319  0.99107592  0.75061946    -0.39000
C996        C  0.74143768  0.00446130  0.72345297     0.21800
N997        N  0.74026047  0.01516198  0.66722145    -0.32300
C998        C  0.74588293  0.02806737  0.69363483    -0.09800
C999        C  0.74722606  0.02202321  0.72873448    -0.28600
N1000       N  0.71491485  0.95892154  0.75848624    -0.45200
C1001       C  0.70412292  0.94583530  0.73398367    -0.04500
C1002       C  0.70884526  0.95176950  0.69685828    -0.21900
H1003       H  0.72362552  0.97999494  0.64324938     0.19900
H1004       H  0.73732703  0.99404174  0.78042224     0.18700
H1005       H  0.74962054  0.02877579  0.75545986     0.15000
H1006       H  0.70124788  0.94492008  0.67189724     0.14900
H1007       H  0.73667589  0.01562515  0.63952524     0.33000
H1008       H  0.71315637  0.95861906  0.78766020     0.35800
C1009       C  0.68242163  0.05859520  0.56531662     0.21400
C1010       C  0.67692286  0.05666910  0.52769503    -0.38500
C1011       C  0.65822751  0.04636827  0.52199904     0.20400
C1012       C  0.64601096  0.03859227  0.55158692     0.23000
C1013       C  0.65149982  0.04057349  0.58914892    -0.39000
C1014       C  0.67015494  0.05088818  0.59484055     0.21800
N1015       N  0.69935504  0.06644168  0.57790911    -0.32300
C1016       C  0.69782664  0.06361576  0.61562754    -0.09800
C1017       C  0.67983859  0.05414666  0.62731821    -0.28600
N1018       N  0.62909439  0.02854408  0.53876569    -0.45200
C1019       C  0.63047488  0.02986405  0.50074413    -0.04500
C1020       C  0.64844131  0.04095564  0.48913990    -0.21900
H1021       H  0.68649504  0.06228488  0.50451913     0.19900
H1022       H  0.64195104  0.03407604  0.61215405     0.18700
H1023       H  0.67452843  0.04933673  0.65539011     0.15000
H1024       H  0.65366357  0.04401186  0.46058680     0.14900
H1025       H  0.71116422  0.07259471  0.56164648     0.33000
H1026       H  0.61735155  0.02077930  0.55487552     0.35800
C1027       C  0.07875639  0.34969895  0.09393570     0.21400
C1028       C  0.06678672  0.34141578  0.06380695    -0.38500
C1029       C  0.07454817  0.34079101  0.02968562     0.20400
C1030       C  0.09280532  0.34780277  0.02611305     0.23000
C1031       C  0.10477411  0.35621396  0.05608866    -0.39000
C1032       C  0.09703960  0.35688105  0.09010810     0.21800
N1033       N  0.07459236  0.35090573  0.12978771    -0.32300
C1034       C  0.09030094  0.35882929  0.14897796    -0.09800
C1035       C  0.10464006  0.36288998  0.12507916    -0.28600
N1036       N  0.09691924  0.34570841  0.99089153    -0.45200
C1037       C  0.08126236  0.33749773  0.97155132    -0.04500
C1038       C  0.06694799  0.33418000  0.99482832    -0.21900
H1039       H  0.05247226  0.33571645  0.06683266     0.19900
H1040       H  0.11903805  0.36162476  0.05324980     0.18700
H1041       H  0.11848282  0.36827680  0.13276472     0.15000
H1042       H  0.05305758  0.32841105  0.98696349     0.14900
H1043       H  0.06168127  0.34562842  0.14097424     0.33000
H1044       H  0.10978371  0.35036481  0.98018402     0.35800
C1045       C  0.15783013  0.34682834  0.80302286     0.21400
C1046       C  0.17613484  0.35669174  0.79213545    -0.38500
C1047       C  0.18489437  0.34752014  0.79411077     0.20400
C1048       C  0.17610294  0.32995788  0.80639442     0.23000
C1049       C  0.15784507  0.32011590  0.81710849    -0.39000
C1050       C  0.14906665  0.32919639  0.81477165     0.21800
N1051       N  0.14651492  0.35246193  0.80417787    -0.32300
C1052       C  0.13043978  0.33828021  0.81667261    -0.09800
C1053       C  0.13151553  0.32351912  0.82337431    -0.28600
N1054       N  0.18714071  0.32405859  0.80475509    -0.45200
C1055       C  0.20306528  0.33784313  0.79088820    -0.04500
C1056       C  0.20223901  0.35277341  0.78403379    -0.21900
H1057       H  0.18299794  0.37042286  0.78253902     0.19900
H1058       H  0.15093250  0.30632584  0.82633229     0.18700
H1059       H  0.12100250  0.31053508  0.83416910     0.15000
H1060       H  0.21268731  0.36549870  0.77207200     0.14900
H1061       H  0.14962589  0.36525271  0.79765049     0.33000
H1062       H  0.18382690  0.31120117  0.81133532     0.35800
C1063       C  0.90916307  0.31424824  0.55484776     0.21400
C1064       C  0.91593667  0.32522642  0.52271664    -0.38500
C1065       C  0.92607501  0.34368241  0.52925210     0.20400
C1066       C  0.92871444  0.35068925  0.56515878     0.23000
C1067       C  0.92201729  0.33973373  0.59731144    -0.39000
C1068       C  0.91244546  0.32127435  0.59085677     0.21800
N1069       N  0.90313562  0.29684746  0.55612014    -0.32300
C1070       C  0.90358124  0.29295004  0.59276586    -0.09800
C1071       C  0.90877508  0.30771058  0.61548416    -0.28600
N1072       N  0.94115337  0.36833370  0.56453096    -0.45200
C1073       C  0.94698745  0.37252595  0.52834663    -0.04500
C1074       C  0.93769210  0.35754964  0.50531748    -0.21900
H1075       H  0.91502003  0.31978668  0.49496384     0.19900
H1076       H  0.92569415  0.34522979  0.62539157     0.18700
H1077       H  0.91221242  0.30913453  0.64500027     0.15000
H1078       H  0.94049835  0.35653439  0.47604326     0.14900
H1079       H  0.90175502  0.28896532  0.53298591     0.33000
H1080       H  0.94685814  0.37658956  0.58799397     0.35800
C1081       C  0.84175796  0.18061358  0.65442966     0.21400
C1082       C  0.82371356  0.17193310  0.66606039    -0.38500
C1083       C  0.81347421  0.15329596  0.66267776     0.20400
C1084       C  0.82065874  0.14393228  0.64910575     0.23000
C1085       C  0.83874917  0.15263806  0.63734059    -0.39000
C1086       C  0.84899309  0.17136808  0.64040045     0.21800
N1087       N  0.85404727  0.19830179  0.65367246    -0.32300
C1088       C  0.86923199  0.20043660  0.63883791    -0.09800
C1089       C  0.86664296  0.18393866  0.63018056    -0.28600
N1090       N  0.80801373  0.12627589  0.64866506    -0.45200
C1091       C  0.79270657  0.12452455  0.66170243    -0.04500
C1092       C  0.79558878  0.14105007  0.67080596    -0.21900
H1093       H  0.81800346  0.17918880  0.67653190     0.19900
H1094       H  0.84435925  0.14539960  0.62620922     0.18700
H1095       H  0.87620742  0.18151355  0.61726600     0.15000
H1096       H  0.78592170  0.14371364  0.68216189     0.14900
H1097       H  0.85206647  0.20834870  0.66175817     0.33000
H1098       H  0.80967395  0.11608054  0.64007016     0.35800
C1099       C  0.99136006  0.28475717  0.69613563     0.21400
C1100       C  0.01027638  0.29405931  0.69627470    -0.38500
C1101       C  0.01826879  0.29708744  0.73181098     0.20400
C1102       C  0.00820298  0.29121497  0.76480318     0.23000
C1103       C  0.98925696  0.28204174  0.76469105    -0.39000
C1104       C  0.98124369  0.27903598  0.72906949     0.21800
N1105       N  0.98063818  0.28039018  0.66599555    -0.32300
C1106       C  0.96349592  0.27176124  0.67958663    -0.09800
C1107       C  0.96334539  0.27073809  0.71892213    -0.28600
N1108       N  0.01909055  0.29656886  0.79494762    -0.45200
C1109       C  0.03621373  0.30621958  0.78107968    -0.04500
C1110       C  0.03620690  0.30669382  0.74178779    -0.21900
H1111       H  0.01822355  0.29885153  0.67058333     0.19900
H1112       H  0.98135236  0.27776223  0.79046630     0.18700
H1113       H  0.95172223  0.26478658  0.73756338     0.15000
H1114       H  0.04777815  0.31386591  0.72311251     0.14900
H1115       H  0.98474687  0.28317336  0.63782030     0.33000
H1116       H  0.01513288  0.29467964  0.82324246     0.35800
C1117       C  0.65467311  0.57569940  0.54243497     0.21400
C1118       C  0.67331939  0.58497322  0.53637604    -0.38500
C1119       C  0.68392858  0.59069378  0.56879656     0.20400
C1120       C  0.67653526  0.58774436  0.60470431     0.23000
C1121       C  0.65786217  0.57765706  0.61080943    -0.39000
C1122       C  0.64725880  0.57167344  0.57841514     0.21800
N1123       N  0.64230508  0.57305589  0.51698648    -0.32300
C1124       C  0.62699979  0.56727945  0.53703706    -0.09800
C1125       C  0.62942627  0.56566778  0.57513139    -0.28600
N1126       N  0.68911592  0.59884838  0.62953438    -0.45200
C1127       C  0.70455096  0.60879869  0.60924801    -0.04500
C1128       C  0.70196250  0.60360821  0.57165851    -0.21900
H1129       H  0.67922434  0.58925216  0.50851267     0.19900
H1130       H  0.65204298  0.57637796  0.63848435     0.18700
H1131       H  0.62023436  0.56338728  0.59801700     0.15000
H1132       H  0.71121630  0.61066598  0.54844142     0.14900
H1133       H  0.64468961  0.57698155  0.48872722     0.33000
H1134       H  0.68683075  0.60110893  0.65724021     0.35800
C1135       C  0.58056242  0.56825532  0.68716992     0.21400
C1136       C  0.57527710  0.55645750  0.71782270    -0.38500
C1137       C  0.58635704  0.56327461  0.74951449     0.20400
C1138       C  0.60152932  0.58052254  0.75057970     0.23000
C1139       C  0.60681598  0.59231359  0.71989202    -0.39000
C1140       C  0.59575790  0.58548860  0.68816523     0.21800
N1141       N  0.57291715  0.56465680  0.65311582    -0.32300
C1142       C  0.58344613  0.57960418  0.63205311    -0.09800
C1143       C  0.59773226  0.59296636  0.65308131    -0.28600
N1144       N  0.60898755  0.58422114  0.78487399    -0.45200
C1145       C  0.59837090  0.56931320  0.80599189    -0.04500
C1146       C  0.58424371  0.55587826  0.78471225    -0.21900
H1147       H  0.56336645  0.54299178  0.71710937     0.19900
H1148       H  0.61865458  0.60582006  0.72068899     0.18700
H1149       H  0.60882640  0.60586625  0.64320791     0.15000
H1150       H  0.57300730  0.54306153  0.79459987     0.14900
H1151       H  0.56199269  0.55234319  0.64396456     0.33000
H1152       H  0.61972739  0.59661129  0.79417632     0.35800
C1153       C  0.73337277  0.74692499  0.24910237     0.21400
C1154       C  0.74148401  0.74261778  0.22068459    -0.38500
C1155       C  0.74696497  0.73121794  0.23131754     0.20400
C1156       C  0.74472800  0.72482634  0.26779399     0.23000
C1157       C  0.73703677  0.72945308  0.29637116    -0.39000
C1158       C  0.73128596  0.74058374  0.28561819     0.21800
N1159       N  0.72306967  0.75345625  0.24375706    -0.32300
C1160       C  0.71388566  0.75066475  0.27647504    -0.09800
C1161       C  0.71916519  0.74328137  0.30369924    -0.28600
N1162       N  0.74750840  0.71155174  0.26924078    -0.45200
C1163       C  0.75136634  0.70928317  0.23355412    -0.04500
C1164       C  0.75155186  0.72155941  0.20909060    -0.21900
H1165       H  0.74170089  0.74627947  0.19155917     0.19900
H1166       H  0.73391453  0.72321177  0.32390986     0.18700
H1167       H  0.71274608  0.73780820  0.33074222     0.15000
H1168       H  0.75258623  0.72182877  0.17868614     0.14900
H1169       H  0.72042981  0.75705753  0.21786620     0.33000
H1170       H  0.74521324  0.70337395  0.29246880     0.35800
C1171       C  0.66312904  0.75202513  0.02947234     0.21400
C1172       C  0.65839699  0.75749810  0.06204822    -0.38500
C1173       C  0.65693445  0.74824316  0.09515492     0.20400
C1174       C  0.66001684  0.73464411  0.09574456     0.23000
C1175       C  0.66480049  0.72922380  0.06325177    -0.39000
C1176       C  0.66623110  0.73844172  0.03018307     0.21800
N1177       N  0.66435441  0.75792822  0.99410495    -0.32300
C1178       C  0.66815586  0.74793494  0.97223368    -0.09800
C1179       C  0.66959987  0.73577221  0.99376861    -0.28600
N1180       N  0.65847515  0.72844917  0.13088531    -0.45200
C1181       C  0.65448148  0.73823841  0.15286453    -0.04500
C1182       C  0.65325878  0.75062751  0.13160212    -0.21900
H1183       H  0.65594654  0.76809939  0.06161580     0.19900
H1184       H  0.66714598  0.71855034  0.06365404     0.18700
H1185       H  0.67171486  0.72560063  0.98382982     0.15000
H1186       H  0.65102307  0.76069040  0.14173998     0.14900
H1187       H  0.66185125  0.76749567  0.98519239     0.33000
H1188       H  0.66082242  0.71874811  0.13960997     0.35800
C1189       C  0.61668185  0.66456391  0.35427153     0.21400
C1190       C  0.61131152  0.64658584  0.35517440    -0.38500
C1191       C  0.60694264  0.63848859  0.39088359     0.20400
C1192       C  0.60785178  0.64759344  0.42323261     0.23000
C1193       C  0.61334943  0.66560619  0.42236217    -0.39000
C1194       C  0.61769192  0.67369641  0.38664905     0.21800
N1195       N  0.62241542  0.67551559  0.32416621    -0.32300
C1196       C  0.62723646  0.69176766  0.33752148    -0.09800
C1197       C  0.62438438  0.69112875  0.37632365    -0.28600
N1198       N  0.60327645  0.63697856  0.45368864    -0.45200
C1199       C  0.59949952  0.62102679  0.44063215    -0.04500
C1200       C  0.60165280  0.62145536  0.40161947    -0.21900
H1201       H  0.61083076  0.63950360  0.33000897     0.19900
H1202       H  0.61442230  0.67286339  0.44768351     0.18700
H1203       H  0.62768692  0.70215391  0.39476105     0.15000
H1204       H  0.59972269  0.61077591  0.38360523     0.14900
H1205       H  0.62381196  0.67234907  0.29658020     0.33000
H1206       H  0.60295803  0.64042984  0.48165362     0.35800
C1207       C  0.31888122  0.39592172  0.34161672     0.21400
C1208       C  0.33675639  0.40323233  0.33028510    -0.38500
C1209       C  0.34940377  0.40945219  0.35919195     0.20400
C1210       C  0.34466911  0.40839440  0.39684427     0.23000
C1211       C  0.32685403  0.40170649  0.40808679    -0.39000
C1212       C  0.31418606  0.39559086  0.37908174     0.21800
N1213       N  0.30418724  0.38517372  0.32093414    -0.32300
C1214       C  0.29010081  0.37788939  0.34540869    -0.09800
C1215       C  0.29573019  0.38456960  0.38159771    -0.28600
N1216       N  0.35807457  0.41081922  0.41900589    -0.45200
C1217       C  0.37121895  0.41317026  0.39512850    -0.04500
C1218       C  0.36650766  0.41301352  0.35778152    -0.21900
H1219       H  0.34026096  0.40227112  0.30150857     0.19900
H1220       H  0.32281155  0.39956940  0.43745354     0.18700
H1221       H  0.28778605  0.37960623  0.40728674     0.15000
H1222       H  0.37347631  0.41269250  0.33291107     0.14900
H1223       H  0.30402496  0.38126120  0.29313578     0.33000
H1224       H  0.35736096  0.40868375  0.44804825     0.35800
C1225       C  0.47915464  0.47579848  0.47352072     0.21400
C1226       C  0.48666449  0.49342317  0.48591619    -0.38500
C1227       C  0.50539537  0.50498055  0.48117303     0.20400
C1228       C  0.51580245  0.49935449  0.46541778     0.23000
C1229       C  0.50831559  0.48174641  0.45317459    -0.39000
C1230       C  0.48960803  0.47021892  0.45780297     0.21800
N1231       N  0.46161156  0.46252838  0.47290227    -0.32300
C1232       C  0.46090064  0.44847415  0.45639109    -0.09800
C1233       C  0.47811027  0.45269770  0.44693015    -0.28600
N1234       N  0.53326110  0.51276453  0.46446795    -0.45200
C1235       C  0.53402437  0.52704253  0.47978956    -0.04500
C1236       C  0.51691075  0.52275432  0.49049398    -0.21900
H1237       H  0.47850635  0.49785084  0.49797085     0.19900
H1238       H  0.51644006  0.47739810  0.44057169     0.07900
H1239       H  0.48164134  0.44438376  0.43230412     0.15000
H1240       H  0.51345843  0.53130203  0.50431763     0.14900
H1241       H  0.45074046  0.46323684  0.48162616     0.33000
H1242       H  0.54406115  0.51210998  0.45492579     0.35800
C1243       C  0.40037570  0.39141888  0.17859531     0.21400
C1244       C  0.39474245  0.37998372  0.21005994    -0.38500
C1245       C  0.40514379  0.38744215  0.24261283     0.20400
C1246       C  0.42004156  0.40486594  0.24349328     0.23000
C1247       C  0.42554293  0.41628086  0.21225723    -0.39000
C1248       C  0.41509916  0.40891430  0.17999188     0.21800
N1249       N  0.39352561  0.38739462  0.14366861    -0.32300
C1250       C  0.40402123  0.40249566  0.12294448    -0.09800
C1251       C  0.41744695  0.41621335  0.14478579    -0.28600
N1252       N  0.42697484  0.40920487  0.27816062    -0.45200
C1253       C  0.41626412  0.39459865  0.29991078    -0.04500
C1254       C  0.40260624  0.38063919  0.27864036    -0.21900
H1255       H  0.38309354  0.36636464  0.20933010     0.19900
H1256       H  0.43707773  0.42996178  0.21308687     0.18700
H1257       H  0.42835663  0.42932259  0.13542302     0.15000
H1258       H  0.39142319  0.36785879  0.28881123     0.14900
H1259       H  0.38309771  0.37490651  0.13404411     0.33000
H1260       H  0.43743742  0.42182733  0.28710535     0.35800
C1261       C  0.24957637  0.24120578  0.70793273     0.21400
C1262       C  0.24014127  0.24841209  0.69386708    -0.38500
C1263       C  0.23468171  0.25615362  0.72052447     0.20400
C1264       C  0.23805698  0.25639315  0.75862937     0.23000
C1265       C  0.24692604  0.24862782  0.77281713    -0.39000
C1266       C  0.25274515  0.24127660  0.74608906     0.21800
N1267       N  0.26004144  0.23750806  0.68773092    -0.32300
C1268       C  0.27026437  0.23575978  0.71312546    -0.09800
C1269       C  0.26571145  0.23747985  0.74978879    -0.28600
N1270       N  0.23602948  0.26843433  0.77658503    -0.45200
C1271       C  0.23186814  0.27626814  0.74968925    -0.04500
C1272       C  0.23022180  0.26847249  0.71465782    -0.21900
H1273       H  0.23915775  0.24992519  0.66393040     0.19900
H1274       H  0.25106463  0.25027318  0.80191119     0.18700
H1275       H  0.27278668  0.23844019  0.77527916     0.15000
H1276       H  0.22908722  0.27334151  0.68763052     0.14900
H1277       H  0.26182631  0.23849814  0.65852283     0.33000
H1278       H  0.23983914  0.27285598  0.80420048     0.35800
C1279       C  0.32530731  0.23468788  0.86313622     0.21400
C1280       C  0.31918178  0.22329283  0.89467389    -0.38500
C1281       C  0.31635580  0.23017570  0.92757795     0.20400
C1282       C  0.31933538  0.24707500  0.92886117     0.23000
C1283       C  0.32549013  0.25846080  0.89738641    -0.39000
C1284       C  0.32844780  0.25164523  0.86459905     0.21800
N1285       N  0.32766941  0.23081948  0.82787768    -0.32300
C1286       C  0.33224447  0.24537733  0.80671048    -0.09800
C1287       C  0.33316370  0.25875440  0.82880012    -0.28600
N1288       N  0.31674364  0.25093407  0.96390415    -0.45200
C1289       C  0.31230339  0.23649409  0.98524822    -0.04500
C1290       C  0.31168485  0.22315917  0.96349723    -0.21900
H1291       H  0.31678569  0.21005241  0.89365839     0.19900
H1292       H  0.32781137  0.27167085  0.89836262     0.18700
H1293       H  0.33524982  0.27126331  0.81929832     0.15000
H1294       H  0.30954067  0.21065301  0.97320698     0.14900
H1295       H  0.32501769  0.21854922  0.81831621     0.33000
H1296       H  0.31902473  0.26309871  0.97319321     0.35800
C1297       C  0.37128060  0.31088669  0.57993418     0.21400
C1298       C  0.38592030  0.32856248  0.57376009    -0.38500
C1299       C  0.38629617  0.33615042  0.53887277     0.20400
C1300       C  0.37302149  0.32685808  0.51226212     0.23000
C1301       C  0.35852905  0.30909796  0.51818477    -0.39000
C1302       C  0.35818564  0.30150029  0.55303617     0.21800
N1303       N  0.36728381  0.30108979  0.61160031    -0.32300
C1304       C  0.35152385  0.28534398  0.60490162    -0.09800
C1305       C  0.34551266  0.28505288  0.56852122    -0.28600
N1306       N  0.37572139  0.33744549  0.48265273    -0.45200
C1307       C  0.39088747  0.35356153  0.49028693    -0.04500
C1308       C  0.39797557  0.35323993  0.52495889    -0.21900
H1309       H  0.39601084  0.33603041  0.59498448     0.19900
H1310       H  0.34800372  0.30190587  0.49762764     0.18700
H1311       H  0.33321366  0.27446847  0.55562301     0.15000
H1312       H  0.40961112  0.36424853  0.53884444     0.14900
H1313       H  0.37459878  0.30503635  0.63656637     0.33000
H1314       H  0.36753635  0.33404206  0.45904887     0.35800
C1315       C  0.42311123  0.07702456  0.57030847     0.21400
C1316       C  0.41521297  0.08089537  0.60001879    -0.38500
C1317       C  0.40344350  0.08600071  0.58955639     0.20400
C1318       C  0.40016420  0.08755643  0.55220523     0.23000
C1319       C  0.40801223  0.08368057  0.52256145    -0.39000
C1320       C  0.41943546  0.07818042  0.53299679     0.21800
N1321       N  0.43119248  0.06804054  0.57315695    -0.32300
C1322       C  0.43186603  0.06267599  0.53779835    -0.09800
C1323       C  0.42522296  0.06928971  0.51183500    -0.28600
N1324       N  0.38656165  0.08994301  0.54944385    -0.45200
C1325       C  0.38075099  0.08942022  0.58509596    -0.04500
C1326       C  0.39111135  0.08724397  0.61105332    -0.21900
H1327       H  0.41676356  0.07843435  0.62910929     0.19900
H1328       H  0.40411686  0.08329471  0.49360932     0.18700
H1329       H  0.42224750  0.06557564  0.48252861     0.15000
H1330       H  0.38878900  0.08507703  0.64109219     0.14900
H1331       H  0.43342249  0.06342294  0.59815381     0.33000
H1332       H  0.38043611  0.09011192  0.52460818     0.35800
C1333       C  0.32615607  0.08472547  0.42570476     0.21400
C1334       C  0.33191341  0.09619810  0.39440478    -0.38500
C1335       C  0.33686459  0.09056927  0.36247197     0.20400
C1336       C  0.33598657  0.07463300  0.36153931     0.23000
C1337       C  0.33022394  0.06313617  0.39288744    -0.39000
C1338       C  0.32538159  0.06883614  0.42498257     0.21800
N1339       N  0.32226799  0.08782776  0.46032929    -0.32300
C1340       C  0.31928556  0.07397796  0.48207327    -0.09800
C1341       C  0.32079967  0.06170210  0.46083105    -0.28600
N1342       N  0.34013580  0.07174736  0.32691131    -0.45200
C1343       C  0.34352538  0.08590024  0.30565859    -0.04500
C1344       C  0.34192676  0.09804365  0.32707837    -0.21900
H1345       H  0.33259398  0.10866172  0.39494443     0.19900
H1346       H  0.32965651  0.05073025  0.39240892     0.18700
H1347       H  0.32029123  0.05002478  0.47100280     0.15000
H1348       H  0.34267745  0.10988705  0.31720313     0.14900
H1349       H  0.32308239  0.09938519  0.46928278     0.33000
H1350       H  0.33941631  0.06027358  0.31767793     0.35800
C1351       C  0.31583031  0.14281735  0.63933111     0.21400
C1352       C  0.30512438  0.14991371  0.63868416    -0.38500
C1353       C  0.31433192  0.16845043  0.64371282     0.20400
C1354       C  0.33280673  0.17911128  0.64874458     0.23000
C1355       C  0.34352057  0.17202055  0.64931424    -0.39000
C1356       C  0.33429025  0.15346074  0.64455518     0.21800
N1357       N  0.31039411  0.12569030  0.63417764    -0.32300
C1358       C  0.32551294  0.12545449  0.63592976    -0.09800
C1359       C  0.34066903  0.14248297  0.64273845    -0.28600
N1360       N  0.33817850  0.19616569  0.65471342    -0.45200
C1361       C  0.32298729  0.19629919  0.65389959    -0.04500
C1362       C  0.30785910  0.17931372  0.64674043    -0.21900
H1363       H  0.29067708  0.14159635  0.63486381     0.19900
H1364       H  0.35794765  0.18031917  0.65344339     0.18700
H1365       H  0.35456163  0.14641659  0.64437016     0.15000
H1366       H  0.29393342  0.17531718  0.64570131     0.14900
H1367       H  0.29731883  0.11494629  0.62844746     0.33000
H1368       H  0.35124120  0.20689001  0.66061404     0.35800
C1369       C  0.35471063  0.94652050  0.88712303     0.21400
C1370       C  0.34308418  0.94092265  0.85634506    -0.38500
C1371       C  0.32470089  0.92965993  0.86481284     0.20400
C1372       C  0.31842814  0.92394493  0.90121942     0.23000
C1373       C  0.33008850  0.92961146  0.93205751    -0.39000
C1374       C  0.34845948  0.94134275  0.92369756     0.21800
N1375       N  0.37223261  0.95956760  0.88687040    -0.32300
C1376       C  0.37716927  0.96318607  0.92336627    -0.09800
C1377       C  0.36274978  0.95194758  0.94736352    -0.28600
N1378       N  0.30056036  0.91625907  0.90301338    -0.45200
C1379       C  0.29553698  0.91786234  0.86813626    -0.04500
C1380       C  0.31012951  0.92567679  0.84319191    -0.21900
H1381       H  0.34790403  0.94634930  0.82836715     0.19900
H1382       H  0.32506917  0.92648788  0.96075885     0.18700
H1383       H  0.36233613  0.95258071  0.97775165     0.15000
H1384       H  0.31052532  0.93027221  0.81480080     0.14900
H1385       H  0.37993796  0.96680976  0.86330140     0.33000
H1386       H  0.29276713  0.91260781  0.92764928     0.35800
C1387       C  0.28787082  0.01990204  0.73173108     0.21400
C1388       C  0.28769352  0.01418047  0.76863816    -0.38500
C1389       C  0.27542403  0.99587520  0.77581234     0.20400
C1390       C  0.26423111  0.98416899  0.74823287     0.23000
C1391       C  0.26416551  0.98996968  0.71151515    -0.39000
C1392       C  0.27642977  0.00828257  0.70433236     0.21800
N1393       N  0.29941120  0.03622302  0.71700457    -0.32300
C1394       C  0.29532737  0.03505587  0.67997947    -0.09800
C1395       C  0.28091485  0.01786748  0.67104679    -0.28600
N1396       N  0.25531607  0.96719647  0.76087939    -0.45200
C1397       C  0.26080693  0.96807463  0.79677284    -0.04500
C1398       C  0.27317802  0.98577242  0.80727410    -0.21900
H1399       H  0.29700359  0.02316879  0.78973614     0.19900
H1400       H  0.25577861  0.98075221  0.68967343     0.18700
H1401       H  0.27512836  0.01284632  0.64359928     0.15000
H1402       H  0.28049659  0.99047739  0.83341577     0.14900
H1403       H  0.30984507  0.04734278  0.73103139     0.33000
H1404       H  0.24666362  0.95565459  0.74547041     0.35800
C1405       C  0.26236869  0.93045108  0.03886950     0.21400
C1406       C  0.27450871  0.93828800  0.06880326    -0.38500
C1407       C  0.27082996  0.92717878  0.10012092     0.20400
C1408       C  0.25619235  0.90962781  0.10151241     0.23000
C1409       C  0.24393949  0.90188057  0.07183220    -0.39000
C1410       C  0.24759111  0.91297682  0.04057230     0.21800
N1411       N  0.26367107  0.93763996  0.00478851    -0.32300
C1412       C  0.24964835  0.92460957  0.98464181    -0.09800
C1413       C  0.23917490  0.90914635  0.00627560    -0.28600
N1414       N  0.25497778  0.90225855  0.13524928    -0.45200
C1415       C  0.26872576  0.91529991  0.15584039    -0.04500
C1416       C  0.27906271  0.93096673  0.13465743    -0.21900
H1417       H  0.28599117  0.95199910  0.06775474     0.19900
H1418       H  0.23242897  0.88818486  0.07294423     0.18700
H1419       H  0.22790736  0.89630469  0.99702528     0.15000
H1420       H  0.29000843  0.94388730  0.14439530     0.14900
H1421       H  0.27412716  0.95017365  0.99503488     0.33000
H1422       H  0.24446880  0.88970016  0.14478322     0.35800
C1423       C  0.91611554  0.57122699  0.04454039     0.21400
C1424       C  0.90853436  0.58057686  0.03225790    -0.38500
C1425       C  0.90524064  0.58955874  0.06015406     0.20400
C1426       C  0.90895792  0.58908676  0.09776337     0.23000
C1427       C  0.91584355  0.57915512  0.11029102    -0.39000
C1428       C  0.91938716  0.57036893  0.08233584     0.21800
N1429       N  0.92544026  0.56662536  0.02284963    -0.32300
C1430       C  0.93518970  0.56350586  0.04687372    -0.09800
C1431       C  0.93102147  0.56479218  0.08415910    -0.28600
N1432       N  0.90867696  0.60186084  0.11716095    -0.45200
C1433       C  0.90493790  0.61058855  0.09163255    -0.04500
C1434       C  0.90230072  0.60303811  0.05602177    -0.21900
H1435       H  0.90745799  0.58261913  0.00262647     0.19900
H1436       H  0.92028148  0.58007873  0.13898133     0.18700
H1437       H  0.93835619  0.56529609  0.10884819     0.15000
H1438       H  0.90084909  0.60825205  0.02977789     0.14900
H1439       H  0.92746613  0.56859547  0.99378524     0.33000
H1440       H  0.91265948  0.60560879  0.14500565     0.35800
C1441       C  0.99879562  0.59238767  0.19631478     0.21400
C1442       C  0.99582239  0.60008121  0.22763882    -0.38500
C1443       C  0.99042961  0.58992017  0.26094847     0.20400
C1444       C  0.98813208  0.57333027  0.26288488     0.23000
C1445       C  0.99120167  0.56566502  0.23161178    -0.39000
C1446       C  0.99663197  0.57585273  0.19830124     0.21800
N1447       N  0.00239883  0.59863337  0.16076598    -0.32300
C1448       C  0.00233425  0.58592274  0.13978739    -0.09800
C1449       C  0.99909291  0.57163665  0.16236881    -0.28600
N1450       N  0.98360955  0.56669320  0.29808525    -0.45200
C1451       C  0.98326539  0.57923991  0.31890780    -0.04500
C1452       C  0.98729388  0.59386186  0.29658916    -0.21900
H1453       H  0.99742258  0.61296983  0.22608559     0.19900
H1454       H  0.98929685  0.55263678  0.23300180     0.18700
H1455       H  0.99703996  0.55909987  0.15318579     0.15000
H1456       H  0.98884851  0.60619085  0.30569094     0.14900
H1457       H  0.00337958  0.61014723  0.15093127     0.33000
H1458       H  0.98197329  0.55486266  0.30783599     0.35800
C1459       C  0.02094748  0.75509864  0.70190418     0.21400
C1460       C  0.00881838  0.74659072  0.67234307    -0.38500
C1461       C  0.99058767  0.73820829  0.68177767     0.20400
C1462       C  0.98484840  0.73875650  0.71787430     0.23000
C1463       C  0.99698275  0.74759381  0.74727963    -0.39000
C1464       C  0.01520432  0.75547377  0.73814662     0.21800
N1465       N  0.03783454  0.75902215  0.70227317    -0.32300
C1466       C  0.04252479  0.76093847  0.73895421    -0.09800
C1467       C  0.02909823  0.75963115  0.76205966    -0.28600
N1468       N  0.96714978  0.72654070  0.72186667    -0.45200
C1469       C  0.96175753  0.71780848  0.68861774    -0.04500
C1470       C  0.97584956  0.72499872  0.66255509    -0.21900
H1471       H  0.01311886  0.74458294  0.64524180     0.19900
H1472       H  0.99241144  0.74633000  0.77616189     0.18700
H1473       H  0.02823626  0.75842651  0.79244130     0.15000
H1474       H  0.97590470  0.71956258  0.63534106     0.14900
H1475       H  0.04443657  0.75734141  0.67976245     0.33000
H1476       H  0.95978669  0.72277926  0.74709327     0.35800
C1477       C  0.14550044  0.81987562  0.82898004     0.21400
C1478       C  0.15276959  0.83778065  0.83858865    -0.38500
C1479       C  0.17150404  0.84928255  0.83454378     0.20400
C1480       C  0.18221100  0.84343102  0.82180883     0.23000
C1481       C  0.17496075  0.82545557  0.81258013    -0.39000
C1482       C  0.15618865  0.81391719  0.81671362     0.21800
N1483       N  0.12797552  0.80667574  0.82751895    -0.32300
C1484       C  0.12746023  0.79221832  0.81403680    -0.09800
C1485       C  0.14479952  0.79611919  0.80748879    -0.28600
N1486       N  0.19963947  0.85702333  0.82073499    -0.45200
C1487       C  0.19999436  0.87154366  0.83333537    -0.04500
C1488       C  0.18270683  0.86726024  0.84201941    -0.21900
H1489       H  0.14441514  0.84246781  0.84798317     0.19900
H1490       H  0.18327384  0.82085506  0.80237006     0.18700
H1491       H  0.14849976  0.78747845  0.79513276     0.15000
H1492       H  0.17892236  0.87599553  0.85345250     0.14900
H1493       H  0.11701616  0.80771325  0.83334671     0.33000
H1494       H  0.21065497  0.85633458  0.81319124     0.35800
C1495       C  0.04639551  0.67258985  0.86779536     0.21400
C1496       C  0.04820222  0.65933990  0.88394839    -0.38500
C1497       C  0.03347341  0.64634924  0.90559864     0.20400
C1498       C  0.01800827  0.64642004  0.91040090     0.23000
C1499       C  0.01612586  0.65960742  0.89396991    -0.39000
C1500       C  0.03098146  0.67275194  0.87268987     0.21800
N1501       N  0.05885717  0.68685763  0.84760358    -0.32300
C1502       C  0.05144336  0.69629912  0.83978045    -0.09800
C1503       C  0.03400101  0.68788117  0.85476566    -0.28600
N1504       N  0.00628583  0.63306027  0.93355100    -0.45200
C1505       C  0.01440016  0.62451936  0.94381307    -0.04500
C1506       C  0.03133692  0.63235701  0.92673651    -0.21900
H1507       H  0.06039017  0.65941769  0.88071511     0.19900
H1508       H  0.00418273  0.65988192  0.89826989     0.18700
H1509       H  0.02488609  0.69235112  0.85318006     0.15000
H1510       H  0.04094044  0.62857381  0.93000674     0.14900
H1511       H  0.07174757  0.69013420  0.84011226     0.33000
H1512       H  0.99370023  0.63016888  0.94250063     0.35800
C1513       C  0.07205622  0.73157653  0.59763176     0.21400
C1514       C  0.06097191  0.72720383  0.56611521    -0.38500
C1515       C  0.06964009  0.73682362  0.53309406     0.20400
C1516       C  0.08792214  0.74983368  0.53161849     0.23000
C1517       C  0.09904464  0.75401976  0.56294795    -0.39000
C1518       C  0.09039403  0.74439716  0.59594183     0.21800
N1519       N  0.06680063  0.72583848  0.63319896    -0.32300
C1520       C  0.08187127  0.73521511  0.65431026    -0.09800
C1521       C  0.09689152  0.74668320  0.63193903    -0.28600
N1522       N  0.09284916  0.75718577  0.49709597    -0.45200
C1523       C  0.07761991  0.74869136  0.47631787    -0.04500
C1524       C  0.06288184  0.73585385  0.49777311    -0.21900
H1525       H  0.04658870  0.71737723  0.56745622     0.19900
H1526       H  0.11329260  0.76437401  0.56200469     0.18700
H1527       H  0.11036533  0.75666449  0.64127286     0.15000
H1528       H  0.04921317  0.72661796  0.48840828     0.14900
H1529       H  0.05355930  0.71729322  0.64291918     0.33000
H1530       H  0.10590127  0.76682711  0.48780885     0.35800
C1531       C  0.06303801  0.42239249  0.88015794     0.21400
C1532       C  0.06965480  0.41736343  0.85002405    -0.38500
C1533       C  0.07894747  0.40937314  0.85979380     0.20400
C1534       C  0.08189841  0.40707639  0.89694080     0.23000
C1535       C  0.07531106  0.41214426  0.92709210    -0.39000
C1536       C  0.06556685  0.41966143  0.91731013     0.21800
N1537       N  0.05071019  0.42659787  0.87794205    -0.32300
C1538       C  0.04482562  0.42590210  0.91362419    -0.09800
C1539       C  0.05408165  0.42203502  0.93915051    -0.28600
N1540       N  0.08804223  0.39634272  0.89905612    -0.45200
C1541       C  0.08835394  0.39117281  0.86332094    -0.04500
C1542       C  0.08316442  0.39935612  0.83788367    -0.21900
H1543       H  0.06620719  0.41795252  0.82115405     0.19900
H1544       H  0.07613848  0.40879764  0.95594537     0.18700
H1545       H  0.05112283  0.41902784  0.96883754     0.15000
H1546       H  0.08056186  0.39652921  0.80816722     0.14900
H1547       H  0.04500018  0.42759466  0.85324764     0.33000
H1548       H  0.08965188  0.39101498  0.92370496     0.35800
C1549       C  0.99830029  0.48859525  0.96511492     0.21400
C1550       C  0.00900435  0.50721275  0.96898934    -0.38500
C1551       C  0.99958316  0.51556078  0.97281066     0.20400
C1552       C  0.98092933  0.50609283  0.97259842     0.23000
C1553       C  0.97020910  0.48744519  0.96879363    -0.39000
C1554       C  0.97964274  0.47907770  0.96506203     0.21800
N1555       N  0.00402704  0.47759195  0.96096989    -0.32300
C1556       C  0.98892926  0.46096286  0.95824001    -0.09800
C1557       C  0.97342291  0.46129391  0.96063042    -0.28600
N1558       N  0.97526058  0.51710820  0.97781447    -0.45200
C1559       C  0.99041978  0.53363540  0.98163991    -0.04500
C1560       C  0.00586220  0.53324690  0.97861800    -0.21900
H1561       H  0.02358092  0.51462354  0.96933037     0.19900
H1562       H  0.95562881  0.48000975  0.96896873     0.18700
H1563       H  0.95954376  0.45010462  0.95875594     0.15000
H1564       H  0.01974481  0.54429499  0.98163266     0.14900
H1565       H  0.01739139  0.48120529  0.95939792     0.33000
H1566       H  0.96192196  0.51352400  0.98006684     0.35800
C1567       C  0.99190235  0.40765719  0.75208447     0.21400
C1568       C  0.99793617  0.40263366  0.72081877    -0.38500
C1569       C  0.00067954  0.41228648  0.68751972     0.20400
C1570       C  0.99770815  0.42593445  0.68562831     0.23000
C1571       C  0.99158890  0.43088804  0.71681243    -0.39000
C1572       C  0.98882829  0.42123326  0.75006179     0.21800
N1573       N  0.98926855  0.40126711  0.78740898    -0.32300
C1574       C  0.98460968  0.41092496  0.80807364    -0.09800
C1575       C  0.98406913  0.42342711  0.78568248    -0.28600
N1576       N  0.00080286  0.43269257  0.65059100    -0.45200
C1577       C  0.00559624  0.42317783  0.62982295    -0.04500
C1578       C  0.00571956  0.41034156  0.65191845    -0.21900
H1579       H  0.00038093  0.39204443  0.72234972     0.19900
H1580       H  0.98927697  0.44156961  0.71536015     0.18700
H1581       H  0.98171125  0.43355128  0.79473137     0.15000
H1582       H  0.00820381  0.40032210  0.64273640     0.14900
H1583       H  0.99158066  0.39169933  0.79729147     0.33000
H1584       H  0.99876365  0.44247760  0.64091697     0.35800
C1585       C  0.98798260  0.26504815  0.19542900     0.21400
C1586       C  0.00607512  0.27549921  0.18375724    -0.38500
C1587       C  0.01884096  0.28200706  0.21256619     0.20400
C1588       C  0.01398190  0.27855182  0.25028281     0.23000
C1589       C  0.99594461  0.26752439  0.26183346    -0.39000
C1590       C  0.98318497  0.26089862  0.23303804     0.21800
N1591       N  0.97353073  0.26083486  0.17477855    -0.32300
C1592       C  0.95954904  0.25409111  0.19952133    -0.09800
C1593       C  0.96495825  0.25340720  0.23580881    -0.28600
N1594       N  0.02812732  0.28939721  0.27229904    -0.45200
C1595       C  0.04204736  0.29967172  0.24835751    -0.04500
C1596       C  0.03688616  0.29518011  0.21099635    -0.21900
H1597       H  0.00988385  0.27971267  0.15476369     0.19900
H1598       H  0.99203222  0.26569703  0.29126463     0.18700
H1599       H  0.95715426  0.25035775  0.26155955     0.15000
H1600       H  0.04468133  0.30227362  0.18608478     0.14900
H1601       H  0.97358601  0.26419913  0.14660398     0.33000
H1602       H  0.02791688  0.29084293  0.30144827     0.35800
C1603       C  0.95085320  0.35193094  0.05047595     0.21400
C1604       C  0.94750830  0.34581055  0.08791975    -0.38500
C1605       C  0.93747395  0.32716895  0.09282237     0.20400
C1606       C  0.93157950  0.31551891  0.06268111     0.23000
C1607       C  0.93489106  0.32164255  0.02516802    -0.39000
C1608       C  0.94458326  0.34029894  0.02027305     0.21800
N1609       N  0.96031069  0.36900990  0.03847811    -0.32300
C1610       C  0.95989596  0.36831951  0.00035383    -0.09800
C1611       C  0.95014890  0.35062561  0.98788939    -0.28600
N1612       N  0.92322433  0.29849686  0.07487138    -0.45200
C1613       C  0.92366394  0.29927366  0.11304689    -0.04500
C1614       C  0.93233587  0.31694930  0.12527630    -0.21900
H1615       H  0.95246739  0.35491190  0.11152637     0.19900
H1616       H  0.93035165  0.31255792  0.00155169     0.18700
H1617       H  0.94794618  0.34597490  0.95908900     0.15000
H1618       H  0.93530090  0.32173020  0.15396699     0.14900
H1619       H  0.96681587  0.38046193  0.05520923     0.33000
H1620       H  0.91800931  0.28707692  0.05823185     0.35800
C1621       C  0.90249956  0.24757014  0.36422252     0.21400
C1622       C  0.89655171  0.23662717  0.39657888    -0.38500
C1623       C  0.90703897  0.24429646  0.42901957     0.20400
C1624       C  0.92214615  0.26159615  0.42929869     0.23000
C1625       C  0.92807495  0.27249743  0.39702260    -0.39000
C1626       C  0.91772133  0.26479576  0.36457445     0.21800
N1627       N  0.89573287  0.24306498  0.32919848    -0.32300
C1628       C  0.90688374  0.25746416  0.30705243    -0.09800
C1629       C  0.92063634  0.27129821  0.32827722    -0.28600
N1630       N  0.92937831  0.26602601  0.46387183    -0.45200
C1631       C  0.91886520  0.25143844  0.48591776    -0.04500
C1632       C  0.90485245  0.23756763  0.46507208    -0.21900
H1633       H  0.88476252  0.22308055  0.39640735     0.19900
H1634       H  0.94002393  0.28594578  0.39704502     0.18700
H1635       H  0.93197626  0.28396345  0.31803663     0.15000
H1636       H  0.89391898  0.22468998  0.47543432     0.14900
H1637       H  0.88494086  0.23057898  0.32047010     0.33000
H1638       H  0.94034892  0.27846413  0.47231026     0.35800
C1639       C  0.65512768  0.06290581  0.02147242     0.21400
C1640       C  0.67308811  0.07183476  0.00908289    -0.38500
C1641       C  0.68615371  0.07906846  0.03730283     0.20400
C1642       C  0.68167155  0.07776411  0.07520970     0.23000
C1643       C  0.66376945  0.06966472  0.08740547    -0.39000
C1644       C  0.65070190  0.06216050  0.05925987     0.21800
N1645       N  0.64060946  0.05077454  0.00176076    -0.32300
C1646       C  0.62701671  0.04210491  0.02726656    -0.09800
C1647       C  0.63263828  0.04926253  0.06310794    -0.28600
N1648       N  0.69543044  0.08064789  0.09662389    -0.45200
C1649       C  0.70850274  0.08331021  0.07225998    -0.04500
C1650       C  0.70352263  0.08323197  0.03512977    -0.21900
H1651       H  0.67650363  0.07102684  0.98013912     0.19900
H1652       H  0.66011742  0.06717775  0.11696187     0.18700
H1653       H  0.62527159  0.04378739  0.08931499     0.15000
H1654       H  0.71032911  0.08290490  0.00997990     0.14900
H1655       H  0.64053815  0.04706557  0.97383254     0.33000
H1656       H  0.69488816  0.07822595  0.12552309     0.35800
C1657       C  0.83735589  0.17917636  0.15054772     0.21400
C1658       C  0.81876603  0.16715368  0.15620760    -0.38500
C1659       C  0.81177180  0.14951160  0.14490716     0.20400
C1660       C  0.82244226  0.14424121  0.12895727     0.23000
C1661       C  0.84106317  0.15626854  0.12334423    -0.39000
C1662       C  0.84808531  0.17392057  0.13483834     0.21800
N1663       N  0.84732366  0.19651228  0.16022229    -0.32300
C1664       C  0.86455343  0.20231776  0.15095021    -0.09800
C1665       C  0.86557185  0.18865001  0.13480510    -0.28600
N1666       N  0.81241405  0.12684635  0.11961190    -0.45200
C1667       C  0.79526784  0.12104505  0.12976913    -0.04500
C1668       C  0.79434242  0.13477063  0.14576550    -0.21900
H1669       H  0.81037515  0.17122372  0.16863369     0.19900
H1670       H  0.84946543  0.15217411  0.11109149     0.18700
H1671       H  0.87756103  0.18923998  0.12564939     0.15000
H1672       H  0.78241926  0.13420026  0.15537152     0.14900
H1673       H  0.84278060  0.20376783  0.17360619     0.33000
H1674       H  0.81686419  0.11951147  0.10622873     0.35800
C1675       C  0.73501951  0.06789266  0.86122854     0.21400
C1676       C  0.72814544  0.05622766  0.89214935    -0.38500
C1677       C  0.73973455  0.06121552  0.92279956     0.20400
C1678       C  0.75682745  0.07671744  0.92286195     0.23000
C1679       C  0.76370083  0.08845682  0.89194692    -0.39000
C1680       C  0.75211948  0.08340941  0.86115209     0.21800
N1681       N  0.72730049  0.06524998  0.82749320    -0.32300
C1682       C  0.73964863  0.07904384  0.80558970    -0.09800
C1683       C  0.75518190  0.09084010  0.82577461    -0.28600
N1684       N  0.76461803  0.07902808  0.95647367    -0.45200
C1685       C  0.75229917  0.06497408  0.97800535    -0.04500
C1686       C  0.73672648  0.05346450  0.95773845    -0.21900
H1687       H  0.71479177  0.04408085  0.89222690     0.19900
H1688       H  0.77710209  0.10053995  0.89177732     0.18700
H1689       H  0.76771065  0.10222898  0.81493936     0.15000
H1690       H  0.72420286  0.04197316  0.96830088     0.14900
H1691       H  0.71505577  0.05396988  0.81901034     0.33000
H1692       H  0.77687587  0.09022320  0.96517196     0.35800
C1693       C  0.58896352  0.90404478  0.39653864     0.21400
C1694       C  0.58436057  0.91089301  0.42696402    -0.38500
C1695       C  0.57828472  0.92194658  0.41761518     0.20400
C1696       C  0.57620367  0.92528150  0.38060961     0.23000
C1697       C  0.58072647  0.91840614  0.35022000    -0.39000
C1698       C  0.58746979  0.90794578  0.35954688     0.21800
N1699       N  0.59927910  0.89735188  0.39836620    -0.32300
C1700       C  0.60518730  0.89789989  0.36275789    -0.09800
C1701       C  0.59759776  0.90383564  0.33757395    -0.28600
N1702       N  0.57310957  0.93834936  0.37883755    -0.45200
C1703       C  0.57385087  0.94387729  0.41467828    -0.04500
C1704       C  0.57683084  0.93381539  0.43983037    -0.21900
H1705       H  0.58724578  0.90937573  0.45573352     0.19900
H1706       H  0.58089543  0.92256830  0.32153069     0.18700
H1707       H  0.60135692  0.90747392  0.30832773     0.15000
H1708       H  0.57947982  0.93612776  0.46965585     0.14900
H1709       H  0.60431335  0.89531542  0.42294976     0.33000
H1710       H  0.57262495  0.94453959  0.35436392     0.35800
C1711       C  0.65425341  0.91386478  0.52297130     0.21400
C1712       C  0.65167960  0.92168487  0.55452586    -0.38500
C1713       C  0.64455493  0.91072619  0.58659691     0.20400
C1714       C  0.64013907  0.89326847  0.58699900     0.23000
C1715       C  0.64268818  0.88546913  0.55545494    -0.39000
C1716       C  0.65002587  0.89648452  0.52365562     0.21800
N1717       N  0.66064792  0.92133479  0.48892376    -0.32300
C1718       C  0.66053445  0.90858851  0.46802282    -0.09800
C1719       C  0.65409013  0.89296384  0.48876605    -0.28600
N1720       N  0.63540550  0.88629152  0.62179672    -0.45200
C1721       C  0.63718438  0.89949838  0.64392990    -0.04500
C1722       C  0.64255440  0.91484492  0.62286249    -0.21900
H1723       H  0.65541495  0.93542173  0.55444292     0.19900
H1724       H  0.63965045  0.87197434  0.55596491     0.18700
H1725       H  0.65167295  0.88036378  0.47893719     0.15000
H1726       H  0.64637353  0.92783923  0.63332416     0.14900
H1727       H  0.66410432  0.93397909  0.48000109     0.33000
H1728       H  0.63289185  0.87396078  0.63054814     0.35800
C1729       C  0.70883780  0.97925915  0.25553829     0.21400
C1730       C  0.72363888  0.99698946  0.25016211    -0.38500
C1731       C  0.72357984  0.00542730  0.21670435     0.20400
C1732       C  0.70973775  0.99686712  0.19098408     0.23000
C1733       C  0.69496839  0.97930127  0.19647759    -0.39000
C1734       C  0.69513234  0.97087848  0.22949408     0.21800
N1735       N  0.70550555  0.96821773  0.28485558    -0.32300
C1736       C  0.68955712  0.95279478  0.27706694    -0.09800
C1737       C  0.68278007  0.95400471  0.24283387    -0.28600
N1738       N  0.71260261  0.00765887  0.16175722    -0.45200
C1739       C  0.72841154  0.02330277  0.16857864    -0.04500
C1740       C  0.73571489  0.02244460  0.20262725    -0.21900
H1741       H  0.73438477  0.00369857  0.27042509     0.19900
H1742       H  0.68411201  0.97264840  0.17643210     0.18700
H1743       H  0.67026337  0.94393524  0.22973883     0.15000
H1744       H  0.74803052  0.03294033  0.21561824     0.14900
H1745       H  0.71337962  0.97106820  0.30878798     0.33000
H1746       H  0.70416688  0.00462718  0.13872165     0.35800
C1747       C  0.65073414  0.80603601  0.30153230     0.21400
C1748       C  0.64097305  0.81402669  0.29708242    -0.38500
C1749       C  0.65049648  0.83242526  0.30425552     0.20400
C1750       C  0.66838788  0.84214337  0.31499433     0.23000
C1751       C  0.67814020  0.83413743  0.31960588    -0.39000
C1752       C  0.66859676  0.81571094  0.31248070     0.21800
N1753       N  0.64490362  0.78886665  0.29529016    -0.32300
C1754       C  0.65915678  0.78759563  0.30224499    -0.09800
C1755       C  0.67415515  0.80403286  0.31325626    -0.28600
N1756       N  0.67417074  0.85930580  0.32121982    -0.45200
C1757       C  0.65980724  0.86045082  0.31464611    -0.04500
C1758       C  0.64482406  0.84399194  0.30385251    -0.21900
H1759       H  0.62698702  0.80646975  0.28869248     0.19900
H1760       H  0.69210895  0.84168795  0.32811862     0.18700
H1761       H  0.68749847  0.80715114  0.31955490     0.15000
H1762       H  0.63139851  0.84077048  0.29806485     0.14900
H1763       H  0.63218350  0.77876298  0.28579666     0.33000
H1764       H  0.68686263  0.86943139  0.33079980     0.35800
loop_ 
_geom_bond_atom_site_label_1 
_geom_bond_atom_site_label_2 
_geom_bond_distance 
_geom_bond_site_symmetry_2 
_ccdc_geom_bond_type 
O1            C4   1.265       .  A
O1           Cd6   2.450       .  S
C2           O11   1.260       .  A
C2            O7   1.265       .  A
C2         C1700   1.467       .  S
O3            C9   1.267       .  A
O3           Cd6   2.461       .  S
C4           O12   1.264       .  A
C4         C1757   1.466       .  S
C5           O10   1.268       .  A
C5            O8   1.263       .  A
C5         C1736   1.473       .  S
Cd6          O13   2.410       .  S
Cd6          O12   2.461       .  S
Cd6          O11   2.453       .  S
Cd6           O7   2.484       .  S
Cd6          O10   2.520       .  S
Cd6           O8   2.414       .  S
C9           O13   1.264       .  A
C9         C1718   1.461       .  S
O14          C17   1.267       .  A
O14         Cd19   2.437       .  S
C15          O24   1.258       .  A
C15          O20   1.267       .  A
C15        C1649   1.467       .  S
O16          C22   1.265       .  A
O16         Cd19   2.460       .  S
C17          O25   1.268       .  A
C17        C1667   1.468       .  S
C18          O23   1.261       .  A
C18          O21   1.265       .  A
C18        C1739   1.478       .  S
Cd19         O26   2.436       .  S
Cd19         O25   2.458       .  S
Cd19         O24   2.429       .  S
Cd19         O20   2.501       .  S
Cd19         O23   2.479       .  S
Cd19         O21   2.525       .  S
C22          O26   1.264       .  A
C22        C1685   1.464   1_554  S
O27          C30   1.265       .  A
O27         Cd32   2.460       .  S
C28          O37   1.259       .  A
C28          O33   1.264       .  A
C28        C1592   1.467       .  S
O29          C35   1.262       .  A
O29         Cd32   2.485       .  S
C30          O38   1.267       .  A
C30        C1664   1.470       .  S
C31          O36   1.267       .  A
C31          O34   1.267       .  A
C31        C1628   1.478       .  S
Cd32         O39   2.514       .  S
Cd32         O38   2.470       .  S
Cd32         O37   2.430       .  S
Cd32         O33   2.512       .  S
Cd32         O36   2.461       .  S
Cd32         O34   2.498       .  S
C35          O39   1.266       .  A
C35        C1613   1.478       .  S
O40          C43   1.264   1_455  A
O40         Cd45   2.434   1_455  S
C41          O50   1.258       .  A
C41          O46   1.266       .  A
C41        C1538   1.466       .  S
O42          C48   1.264       .  A
O42         Cd45   2.469       .  S
C43          O51   1.266       .  A
C43        C1556   1.462       .  S
C44          O49   1.266       .  A
C44          O47   1.266       .  A
C44        C1574   1.469       .  S
Cd45         O52   2.495       .  S
Cd45         O51   2.463       .  S
Cd45         O50   2.426   1_655  S
Cd45         O46   2.502   1_655  S
Cd45         O49   2.455       .  S
Cd45         O47   2.457       .  S
C48          O52   1.266       .  A
C48        C1610   1.475   1_556  S
O53          C56   1.261       .  A
O53         Cd58   2.409       .  S
C54          O63   1.265       .  A
C54          O59   1.263       .  A
C54        C1484   1.469       .  S
O55          C61   1.265       .  A
O55         Cd58   2.481       .  S
C56          O64   1.268       .  A
C56        C1466   1.460       .  S
C57          O62   1.266       .  A
C57          O60   1.264       .  A
C57        C1520   1.467       .  S
Cd58         O65   2.480       .  S
Cd58         O64   2.471       .  S
Cd58         O63   2.478       .  S
Cd58         O59   2.460       .  S
Cd58         O62   2.458       .  S
Cd58         O60   2.461       .  S
C61          O65   1.263       .  A
C61        C1502   1.473       .  S
O66          C69   1.264       .  A
O66         Cd71   2.444   1_556  S
C67          O76   1.268       .  A
C67          O72   1.262       .  A
C67        C1430   1.466       .  S
O68          C74   1.266   1_655  A
O68         Cd71   2.483       .  S
C69          O77   1.264   1_656  A
C69        C1559   1.461       .  S
C70          O75   1.262   1_455  A
C70          O73   1.266       .  A
C70        C1505   1.475       .  S
Cd71         O78   2.464       .  S
Cd71         O77   2.444   1_655  S
Cd71         O76   2.488       .  S
Cd71         O72   2.410       .  S
Cd71         O75   2.477   1_554  S
Cd71         O73   2.503   1_654  S
C74          O78   1.263   1_455  A
C74        C1448   1.473       .  S
O79          C82   1.266       .  A
O79         Cd84   2.461       .  S
C80          O89   1.266       .  A
C80          O85   1.258       .  A
C80        C1379   1.462       .  S
O81          C87   1.264       .  A
O81         Cd84   2.490       .  S
C82          O90   1.268       .  A
C82        C1487   1.469       .  S
C83          O88   1.266       .  A
C83          O86   1.265       .  A
C83        C1412   1.473       .  S
Cd84         O91   2.489       .  S
Cd84         O90   2.456       .  S
Cd84         O89   2.493       .  S
Cd84         O85   2.409       .  S
Cd84         O88   2.463       .  S
Cd84         O86   2.479       .  S
C87          O91   1.264       .  A
C87        C1397   1.475       .  S
O92          C95   1.265       .  A
O92         Cd97   2.461       .  S
C93         O102   1.265       .  A
C93          O98   1.259       .  A
C93        C1325   1.467       .  S
O94         C100   1.267       .  A
O94         Cd97   2.509       .  S
C95         O103   1.264       .  A
C95        C1358   1.467       .  S
C96         O101   1.266       .  A
C96          O99   1.268       .  A
C96        C1340   1.472       .  S
Cd97        O104   2.456       .  S
Cd97        O103   2.462       .  S
Cd97        O102   2.507       .  S
Cd97         O98   2.438       .  S
Cd97        O101   2.462       .  S
Cd97         O99   2.469       .  S
C100        O104   1.262       .  A
C100       C1394   1.475       .  S
O105        C108   1.265       .  A
O105       Cd110   2.511       .  S
C106        O115   1.265       .  A
C106        O111   1.266       .  A
C106       C1361   1.465       .  S
O107        C113   1.267       .  A
O107       Cd110   2.510       .  S
C108        O116   1.258       .  A
C108       C1268   1.467       .  S
C109        O114   1.270       .  A
C109        O112   1.265       .  A
C109       C1286   1.470       .  S
Cd110       O117   2.478       .  S
Cd110       O116   2.432       .  S
Cd110       O115   2.448       .  S
Cd110       O111   2.453       .  S
Cd110       O114   2.472       .  S
Cd110       O112   2.449       .  S
C113        O117   1.263       .  A
C113       C1304   1.479       .  S
O118        C121   1.267       .  A
O118       Cd123   2.459       .  S
C119        O128   1.268       .  A
C119        O124   1.258       .  A
C119       C1217   1.467       .  S
O120        C126   1.264       .  A
O120       Cd123   2.451       .  S
C121        O129   1.267       .  A
C121       C1232   1.470       .  S
C122        O127   1.262       .  A
C122        O125   1.264       .  A
C122       C1307   1.474       .  S
Cd123       O130   2.474       .  S
Cd123       O129   2.458       .  S
Cd123       O128   2.524       .  S
Cd123       O124   2.398       .  S
Cd123       O127   2.482       .  S
Cd123       O125   2.500       .  S
C126        O130   1.265       .  A
C126       C1253   1.468       .  S
O131        C134   1.266       .  A
O131       Cd136   2.458       .  S
C132        O141   1.261       .  A
C132        O137   1.265       .  A
C132       C1160   1.467       .  S
O133        C139   1.263       .  A
O133       Cd136   2.483       .  S
C134        O142   1.266       .  A
C134       C1754   1.469       .  S
C135        O140   1.265       .  A
C135        O138   1.264       .  A
C135       C1181   1.465       .  S
Cd136       O143   2.474       .  S
Cd136       O142   2.464       .  S
Cd136       O141   2.444       .  S
Cd136       O137   2.480       .  S
Cd136       O140   2.458       .  S
Cd136       O138   2.450       .  S
C139        O143   1.264       .  A
C139       C1196   1.471       .  S
O144        C147   1.265       .  A
O144       Cd149   2.445       .  S
C145        O154   1.257       .  A
C145        O150   1.266       .  A
C145       C1124   1.462       .  S
O146        C152   1.266       .  A
O146       Cd149   2.482       .  S
C147        O155   1.266       .  A
C147       C1235   1.467       .  S
C148        O153   1.268       .  A
C148        O151   1.265       .  A
C148       C1142   1.468       .  S
Cd149       O156   2.467       .  S
Cd149       O155   2.462       .  S
Cd149       O154   2.399       .  S
Cd149       O150   2.512       .  S
Cd149       O153   2.465       .  S
Cd149       O151   2.439       .  S
C152        O156   1.265       .  A
C152       C1199   1.472       .  S
O157        C160   1.266       .  A
O157       Cd162   2.452       .  S
C158        O167   1.265       .  A
C158        O163   1.258       .  A
C158       C1070   1.466       .  S
O159        C165   1.266       .  A
O159       Cd162   2.513       .  S
C160        O168   1.267       .  A
C160       C1088   1.471       .  S
C161        O166   1.266       .  A
C161        O164   1.266       .  A
C161       C1631   1.478       .  S
Cd162       O169   2.514       .  S
Cd162       O168   2.476       .  S
Cd162       O167   2.501       .  S
Cd162       O163   2.435       .  S
Cd162       O166   2.477       .  S
Cd162       O164   2.488       .  S
C165        O169   1.264       .  A
C165       C1106   1.486       .  S
O170        C173   1.266       .  A
O170       Cd175   2.496       .  S
C171        O180   1.266       .  A
C171        O176   1.257       .  A
C171       C1541   1.469       .  S
O172        C178   1.268       .  A
O172       Cd175   2.516       .  S
C173        O181   1.266       .  A
C173       C1052   1.478       .  S
C174        O179   1.264       .  A
C174        O177   1.268       .  A
C174       C1037   1.473       .  S
Cd175       O182   2.473       .  S
Cd175       O181   2.476       .  S
Cd175       O180   2.518       .  S
Cd175       O176   2.440       .  S
Cd175       O179   2.442       .  S
Cd175       O177   2.499       .  S
C178        O182   1.265       .  A
C178       C1109   1.481       .  S
O183        C186   1.267       .  A
O183       Cd188   2.465       .  S
C184        O193   1.260       .  A
C184        O189   1.265       .  A
C184        C998   1.465       .  S
O185        C191   1.266       .  A
O185       Cd188   2.451       .  S
C186        O194   1.265       .  A
C186       C1091   1.465       .  S
C187        O192   1.265       .  A
C187        O190   1.264       .  A
C187       C1016   1.469       .  S
Cd188       O195   2.436       .  S
Cd188       O194   2.428       .  S
Cd188       O193   2.424       .  S
Cd188       O189   2.499       .  S
Cd188       O192   2.473       .  S
Cd188       O190   2.462       .  S
C191        O195   1.264       .  A
C191       C1682   1.462       .  S
O196        C199   1.266       .  A
O196       Cd201   2.477       .  S
C197        O206   1.266       .  A
C197        O202   1.260       .  A
C197       C1703   1.468       .  S
O198        C204   1.265       .  A
O198       Cd201   2.461   1_545  S
C199        O207   1.266   1_565  A
C199        C965   1.473   1_565  S
C200        O205   1.265       .  A
C200        O203   1.263       .  A
C200       C1019   1.471       .  S
Cd201       O208   2.454   1_565  S
Cd201       O207   2.466   1_565  S
Cd201       O206   2.507       .  S
Cd201       O202   2.434       .  S
Cd201       O205   2.495   1_565  S
Cd201       O203   2.455   1_565  S
C204        O208   1.266       .  A
C204        C980   1.469       .  S
O209        C212   1.264       .  A
O209       Cd214   2.437       .  S
C210        O219   1.257       .  A
C210        O215   1.267       .  A
C210        C908   1.467       .  S
O211        C217   1.264       .  A
O211       Cd214   2.495       .  S
C212        O220   1.268       .  A
C212        C929   1.470       .  S
C213        O218   1.265       .  A
C213        O216   1.268       .  A
C213       C1415   1.467       .  S
Cd214       O221   2.495       .  S
Cd214       O220   2.484       .  S
Cd214       O219   2.426       .  S
Cd214       O215   2.512       .  S
Cd214       O218   2.434       .  S
Cd214       O216   2.459       .  S
C217        O221   1.264       .  A
C217        C947   1.478       .  S
O222        C225   1.267       .  A
O222       Cd227   2.466       .  S
C223        O232   1.259       .  A
C223        O228   1.264       .  A
C223       C1322   1.468       .  S
O224        C230   1.267       .  A
O224       Cd227   2.519   1_565  S
C225        O233   1.266   1_545  A
C225        C962   1.473       .  S
C226        O231   1.268       .  A
C226        O229   1.264       .  A
C226        C890   1.469       .  S
Cd227       O234   2.457   1_545  S
Cd227       O233   2.472   1_545  S
Cd227       O232   2.458       .  S
Cd227       O228   2.493       .  S
Cd227       O231   2.470       .  S
Cd227       O229   2.447       .  S
C230        O234   1.263       .  A
C230        C944   1.478       .  S
O235        C238   1.265       .  A
O235       Cd240   2.463       .  S
C236        O245   1.260       .  A
C236        O241   1.266       .  A
C236       C1433   1.467       .  S
O237        C243   1.266       .  A
O237       Cd240   2.455       .  S
C238        O246   1.265       .  A
C238        C872   1.472       .  S
C239        O244   1.266       .  A
C239        O242   1.263       .  A
C239        C857   1.478       .  S
Cd240       O247   2.440       .  S
Cd240       O246   2.482       .  S
Cd240       O245   2.437       .  S
Cd240       O241   2.498       .  S
Cd240       O244   2.519       .  S
Cd240       O242   2.466       .  S
C243        O247   1.266       .  A
C243        C836   1.464   1_554  S
O248        C251   1.266       .  A
O248       Cd253   2.499       .  S
C249        O258   1.270       .  A
C249        O254   1.265       .  A
C249        C926   1.468       .  S
O250        C256   1.264       .  A
O250       Cd253   2.494       .  S
C251        O259   1.255       .  A
C251        C818   1.461       .  S
C252        O257   1.266       .  A
C252        O255   1.266       .  A
C252       C1523   1.469       .  S
Cd253       O260   2.506       .  S
Cd253       O259   2.408       .  S
Cd253       O258   2.473       .  S
Cd253       O254   2.429       .  S
Cd253       O257   2.453       .  S
Cd253       O255   2.463       .  S
C256        O260   1.265       .  A
C256        C854   1.479       .  S
O261        C264   1.265       .  A
O261       Cd266   2.465   1_556  S
C262        O271   1.259       .  A
C262        O267   1.267   1_554  A
C262        C764   1.464       .  S
O263        C269   1.266       .  A
O263       Cd266   2.471       .  S
C264        O272   1.266       .  A
C264        C782   1.473       .  S
C265        O270   1.265       .  A
C265        O268   1.265       .  A
C265        C800   1.480       .  S
Cd266       O273   2.431       .  S
Cd266       O272   2.485   1_554  S
Cd266       O271   2.432       .  S
Cd266       O267   2.488   1_554  S
Cd266       O270   2.507   1_554  S
Cd266       O268   2.486   1_554  S
C269        O273   1.266       .  A
C269       C1250   1.467       .  S
O274        C277   1.267       .  A
O274       Cd279   2.460       .  S
C275        O284   1.265       .  A
C275        O280   1.259       .  A
C275       C1271   1.469       .  S
O276        C282   1.264       .  A
O276       Cd279   2.446       .  S
C277        O285   1.268       .  A
C277       C1055   1.475       .  S
C278        O283   1.264       .  A
C278        O281   1.264       .  A
C278        C803   1.479       .  S
Cd279       O286   2.487       .  S
Cd279       O285   2.478       .  S
Cd279       O284   2.503       .  S
Cd279       O280   2.450       .  S
Cd279       O283   2.489       .  S
Cd279       O281   2.506       .  S
C282        O286   1.266       .  A
C282        C746   1.470       .  S
O287        C290   1.266       .  A
O287       Cd292   2.484       .  S
C288        O297   1.269       .  A
C288        O293   1.261       .  A
C288       C1163   1.466       .  S
O289        C295   1.266       .  A
O289       Cd292   2.498       .  S
C290        O298   1.265       .  A
C290        C875   1.475       .  S
C291        O296   1.269       .  A
C291        O294   1.264       .  A
C291        C710   1.469       .  S
Cd292       O299   2.451       .  S
Cd292       O298   2.476       .  S
Cd292       O297   2.509       .  S
Cd292       O293   2.407       .  S
Cd292       O296   2.481       .  S
Cd292       O294   2.435       .  S
C295        O299   1.262       .  A
C295        C728   1.472       .  S
O300        C303   1.267       .  A
O300       Cd305   2.467       .  S
C301        O310   1.268       .  A
C301        O306   1.259       .  A
C301        C692   1.463       .  S
O302        C308   1.259       .  A
O302       Cd305   2.455       .  S
C303        O311   1.266       .  A
C303        C785   1.471       .  S
C304        O309   1.263       .  A
C304        O307   1.265       .  A
C304       C1145   1.470       .  S
Cd305       O312   2.544       .  S
Cd305       O311   2.458       .  S
Cd305       O310   2.507       .  S
Cd305       O306   2.398       .  S
Cd305       O309   2.459       .  S
Cd305       O307   2.475       .  S
C308        O312   1.266       .  A
C308        C731   1.477   1_556  S
O313        C316   1.263       .  A
O313       Cd318   2.436       .  S
C314        O323   1.259       .  A
C314        O319   1.263       .  A
C314        C695   1.461       .  S
O315        C321   1.266       .  A
O315       Cd318   2.508       .  S
C316        O324   1.268       .  A
C316        C656   1.466       .  S
C317        O322   1.266       .  A
C317        O320   1.264       .  A
C317       C1178   1.468       .  S
Cd318       O325   2.470       .  S
Cd318       O324   2.469       .  S
Cd318       O323   2.432       .  S
Cd318       O319   2.474       .  S
Cd318       O322   2.455       .  S
Cd318       O320   2.468       .  S
C321        O325   1.264       .  A
C321        C674   1.479       .  S
O326        C329   1.266       .  A
O326       Cd331   2.443       .  S
C327        O336   1.266       .  A
C327        O332   1.259       .  A
C327       C1127   1.464       .  S
O328        C334   1.264       .  A
O328       Cd331   2.480       .  S
C329        O337   1.267       .  A
C329        C638   1.470       .  S
C330        O335   1.267       .  A
C330        O333   1.263       .  A
C330        C713   1.474       .  S
Cd331       O338   2.516       .  S
Cd331       O337   2.477       .  S
Cd331       O336   2.501       .  S
Cd331       O332   2.423       .  S
Cd331       O335   2.495       .  S
Cd331       O333   2.460       .  S
C334        O338   1.265       .  A
C334        C677   1.480       .  S
O339        C342   1.262       .  A
O339       Cd344   2.442       .  S
C340        O349   1.266       .  A
C340        O345   1.260       .  A
C340       C1001   1.465       .  S
O341        C347   1.268       .  A
O341       Cd344   2.458       .  S
C342        O350   1.267       .  A
C342        C659   1.471       .  S
C343        O348   1.265       .  A
C343        O346   1.264       .  A
C343        C623   1.477       .  S
Cd344       O351   2.435       .  S
Cd344       O350   2.500       .  S
Cd344       O349   2.472       .  S
Cd344       O345   2.452       .  S
Cd344       O348   2.487       .  S
Cd344       O346   2.494       .  S
C347        O351   1.265       .  A
C347       C1721   1.465       .  S
O352        C355   1.265   1_545  A
O352       Cd357   2.457   1_546  S
C353        O362   1.266   1_554  A
C353        O358   1.259       .  A
C353       C1646   1.466       .  S
O354        C360   1.266       .  A
O354       Cd357   2.475       .  S
C355        O363   1.269   1_556  A
C355        C602   1.473       .  S
C356        O361   1.264       .  A
C356        O359   1.262   1_556  A
C356        C620   1.478       .  S
Cd357       O364   2.465       .  S
Cd357       O363   2.478       .  S
Cd357       O362   2.497   1_564  S
Cd357       O358   2.433   1_565  S
Cd357       O361   2.511   1_554  S
Cd357       O359   2.484       .  S
C360        O364   1.264       .  A
C360        C983   1.471       .  S
O365        C368   1.262   1_455  A
O365       Cd370   2.438   1_455  S
C366        O375   1.265       .  A
C366        O371   1.259       .  A
C366        C821   1.462       .  S
O367        C373   1.267       .  A
O367       Cd370   2.471       .  S
C368        O376   1.267       .  A
C368        C569   1.470       .  S
C369        O374   1.266       .  A
C369        O372   1.262       .  A
C369        C584   1.475       .  S
Cd370       O377   2.475       .  S
Cd370       O376   2.492       .  S
Cd370       O375   2.496   1_655  S
Cd370       O371   2.414   1_655  S
Cd370       O374   2.512       .  S
Cd370       O372   2.464       .  S
C373        O377   1.267       .  A
C373       C1451   1.475       .  S
O378        C381   1.265       .  A
O378       Cd383   2.438       .  S
C379        O388   1.258       .  A
C379        O384   1.264       .  A
C379       C1469   1.458       .  S
O380        C386   1.264       .  A
O380       Cd383   2.454       .  S
C381        O389   1.267       .  A
C381        C641   1.464       .  S
C382        O387   1.264       .  A
C382        O385   1.264       .  A
C382        C587   1.472       .  S
Cd383       O390   2.446       .  S
Cd383       O389   2.440       .  S
Cd383       O388   2.419       .  S
Cd383       O384   2.470       .  S
Cd383       O387   2.481       .  S
Cd383       O385   2.471       .  S
C386        O390   1.266       .  A
C386        C839   1.464       .  S
O391        C394   1.266       .  A
O391       Cd396   2.462       .  S
C392        O401   1.258       .  A
C392        O397   1.267       .  A
C392       C1073   1.468       .  S
O393        C399   1.265       .  A
O393       Cd396   2.506   1_455  S
C394        O402   1.267   1_655  A
C394        C566   1.471       .  S
C395        O400   1.265       .  A
C395        O398   1.266       .  A
C395       C1577   1.471       .  S
Cd396       O403   2.485   1_655  S
Cd396       O402   2.470   1_655  S
Cd396       O401   2.431       .  S
Cd396       O397   2.509       .  S
Cd396       O400   2.464   1_655  S
Cd396       O398   2.463   1_655  S
C399        O403   1.264       .  A
C399        C548   1.478       .  S
O404        C407   1.264       .  A
O404       Cd409   2.446       .  S
C405        O414   1.259       .  A
C405        O410   1.267       .  A
C405       C1595   1.463       .  S
O406        C412   1.264       .  A
O406       Cd409   2.482       .  S
C407        O415   1.267       .  A
C407        C530   1.471       .  S
C408        O413   1.264       .  A
C408        O411   1.269       .  A
C408       C1034   1.471       .  S
Cd409       O416   2.489       .  S
Cd409       O415   2.488       .  S
Cd409       O414   2.412       .  S
Cd409       O410   2.495       .  S
Cd409       O413   2.439       .  S
Cd409       O411   2.479       .  S
C412        O416   1.264       .  A
C412        C551   1.476       .  S
O417        C420   1.264   1_565  A
O417       Cd422   2.453   1_565  S
C418        O427   1.259       .  A
C418        O423   1.267       .  A
C418       C1376   1.466       .  S
O419        C425   1.264       .  A
O419       Cd422   2.475       .  S
C420        O428   1.267       .  A
C420        C605   1.474       .  S
C421        O426   1.267       .  A
C421        O424   1.264       .  A
C421        C893   1.468       .  S
Cd422       O429   2.478   1_556  S
Cd422       O428   2.498       .  S
Cd422       O427   2.412   1_545  S
Cd422       O423   2.518   1_545  S
Cd422       O426   2.468       .  S
Cd422       O424   2.447       .  S
C425        O429   1.264   1_556  A
C425        C512   1.472   1_556  S
O430        C433   1.264       .  A
O430       Cd435   2.472       .  S
C431        O440   1.260       .  A
C431        O436   1.265       .  A
C431        C911   1.468       .  S
O432        C438   1.262       .  A
O432       Cd435   2.490       .  S
C433        O441   1.267       .  A
C433        C497   1.476       .  S
C434        O439   1.266       .  A
C434        O437   1.268       .  A
C434       C1343   1.470       .  S
Cd435       O442   2.497       .  S
Cd435       O441   2.495       .  S
Cd435       O440   2.448       .  S
Cd435       O436   2.494       .  S
Cd435       O439   2.467       .  S
Cd435       O437   2.454       .  S
C438        O442   1.263       .  A
C438        C515   1.474       .  S
O443        C446   1.263       .  A
O443       Cd448   2.449       .  S
C444        O453   1.261       .  A
C444        O449   1.266       .  A
C444       C1214   1.463       .  S
O445        C451   1.263       .  A
O445       Cd448   2.439       .  S
C446        O454   1.268       .  A
C446        C533   1.471       .  S
C447        O452   1.263       .  A
C447        O450   1.264       .  A
C447        C476   1.474       .  S
Cd448       O455   2.476       .  S
Cd448       O454   2.491       .  S
Cd448       O453   2.427       .  S
Cd448       O449   2.473       .  S
Cd448       O452   2.470       .  S
Cd448       O450   2.494       .  S
C451        O455   1.268       .  A
C451        C749   1.468       .  S
O456        C459   1.265       .  A
O456       Cd461   2.449       .  S
C457        O466   1.258       .  A
C457        O462   1.266       .  A
C457        C767   1.467       .  S
O458        C464   1.267       .  A
O458       Cd461   2.459       .  S
C459        O467   1.266       .  A
C459        C494   1.474       .  S
C460        O465   1.263       .  A
C460        O463   1.263       .  A
C460        C479   1.476       .  S
Cd461       O468   2.450       .  S
Cd461       O467   2.497       .  S
Cd461       O466   2.409       .  S
Cd461       O462   2.528       .  S
Cd461       O465   2.487       .  S
Cd461       O463   2.501       .  S
C464        O468   1.266       .  A
C464       C1289   1.468   1_554  S
C469        C474   1.384       .  A
C469        C470   1.405       .  A
C469        N475   1.344       .  A
C470        C471   1.404       .  A
C470        H481   1.082       .  S
C471        C480   1.382       .  A
C471        C472   1.384       .  A
C472        C473   1.406       .  A
C472        N478   1.345       .  A
C473        C474   1.404       .  A
C473        H482   1.082       .  S
C474        C477   1.382       .  A
N475        C476   1.355       .  A
N475        H485   1.045       .  S
C476        C477   1.397       .  A
C477        H483   1.082       .  S
N478        C479   1.356       .  A
N478        H486   1.045       .  S
C479        C480   1.397       .  A
C480        H484   1.082       .  S
C487        C492   1.384       .  A
C487        C488   1.408       .  A
C487        N493   1.348       .  A
C488        C489   1.408       .  A
C488        H499   1.082       .  S
C489        C498   1.382       .  A
C489        C490   1.384       .  A
C490        C491   1.402       .  A
C490        N496   1.345       .  A
C491        C492   1.401       .  A
C491        H500   1.082       .  S
C492        C495   1.375       .  A
N493        C494   1.359       .  A
N493        H503   1.045       .  S
C494        C495   1.393       .  A
C495        H501   1.082       .  S
N496        C497   1.355       .  A
N496        H504   1.045       .  S
C497        C498   1.399       .  A
C498        H502   1.082       .  S
C505        C510   1.384       .  A
C505        C506   1.405       .  A
C505        N511   1.345       .  A
C506        C507   1.404       .  A
C506        H517   1.082       .  S
C507        C516   1.380       .  A
C507        C508   1.384       .  A
C508        C509   1.404       .  A
C508        N514   1.345       .  A
C509        C510   1.403       .  A
C509        H518   1.082       .  S
C510        C513   1.379       .  A
N511        C512   1.356       .  A
N511        H521   1.045       .  S
C512        C513   1.395       .  A
C513        H519   1.082   1_554  S
N514        C515   1.356       .  A
N514        H522   1.045       .  S
C515        C516   1.396       .  A
C516        H520   1.082       .  S
C523        C528   1.384       .  A
C523        C524   1.403       .  A
C523        N529   1.342       .  A
C524        C525   1.401       .  A
C524        H535   1.082       .  S
C525        C534   1.379       .  A
C525        C526   1.384       .  A
C526        C527   1.405       .  A
C526        N532   1.343       .  A
C527        C528   1.403       .  A
C527        H536   1.082       .  S
C528        C531   1.381       .  A
N529        C530   1.355       .  A
N529        H539   1.045       .  S
C530        C531   1.396       .  A
C531        H537   1.082       .  S
N532        C533   1.357       .  A
N532        H540   1.045       .  S
C533        C534   1.394       .  A
C534        H538   1.082       .  S
C541        C546   1.384       .  A
C541        C542   1.405       .  A
C541        N547   1.344       .  A
C542        C543   1.403       .  A
C542        H553   1.082       .  S
C543        C552   1.380       .  A
C543        C544   1.384       .  A
C544        C545   1.407       .  A
C544        N550   1.346       .  A
C545        C546   1.406       .  A
C545        H554   1.082       .  S
C546        C549   1.383       .  A
N547        C548   1.356       .  A
N547        H557   1.045       .  S
C548        C549   1.398       .  A
C549        H555   1.082       .  S
N550        C551   1.357       .  A
N550        H558   1.045       .  S
C551        C552   1.396       .  A
C552        H556   1.082       .  S
C559        C564   1.384   1_655  A
C559        C560   1.406       .  A
C559        N565   1.344       .  A
C560        C561   1.404       .  A
C560        H571   1.082       .  S
C561        C570   1.382       .  A
C561        C562   1.384       .  A
C562        C563   1.403   1_655  A
C562        N568   1.341   1_655  A
C563        C564   1.401       .  A
C563        H572   1.082       .  S
C564        C567   1.378       .  A
N565        C566   1.357       .  A
N565        H575   1.045       .  S
C566        C567   1.394   1_655  A
C567        H573   1.082       .  S
N568        C569   1.355   1_455  A
N568        H576   1.045       .  S
C569        C570   1.396       .  A
C570        H574   1.082       .  S
C577        C582   1.385       .  A
C577        C578   1.405       .  A
C577        N583   1.347       .  A
C578        C579   1.405       .  A
C578        H589   1.082       .  S
C579        C588   1.379       .  A
C579        C580   1.384       .  A
C580        C581   1.404       .  A
C580        N586   1.345       .  A
C581        C582   1.404       .  A
C581        H590   1.082       .  S
C582        C585   1.378       .  A
N583        C584   1.357       .  A
N583        H593   1.045       .  S
C584        C585   1.396       .  A
C585        H591   1.082       .  S
N586        C587   1.356       .  A
N586        H594   1.045       .  S
C587        C588   1.395       .  A
C588        H592   1.082       .  S
C595        C600   1.384   1_545  A
C595        C596   1.407       .  A
C595        N601   1.344       .  A
C596        C597   1.405       .  A
C596        H607   1.082       .  S
C597        C606   1.383       .  A
C597        C598   1.384   1_545  A
C598        C599   1.403       .  A
C598        N604   1.342       .  A
C599        C600   1.402       .  A
C599        H608   1.082       .  S
C600        C603   1.379       .  A
N601        C602   1.357   1_545  A
N601        H611   1.045       .  S
C602        C603   1.394       .  A
C603        H609   1.082       .  S
N604        C605   1.355   1_565  A
N604        H612   1.045       .  S
C605        C606   1.397       .  A
C606        H610   1.082       .  S
C613        C618   1.384       .  A
C613        C614   1.404       .  A
C613        N619   1.344       .  A
C614        C615   1.403       .  A
C614        H625   1.082       .  S
C615        C624   1.379       .  A
C615        C616   1.384       .  A
C616        C617   1.408       .  A
C616        N622   1.347       .  A
C617        C618   1.407       .  A
C617        H626   1.082       .  S
C618        C621   1.384       .  A
N619        C620   1.356       .  A
N619        H629   1.045       .  S
C620        C621   1.398       .  A
C621        H627   1.082       .  S
N622        C623   1.358       .  A
N622        H630   1.045       .  S
C623        C624   1.395       .  A
C624        H628   1.082       .  S
C631        C636   1.385       .  A
C631        C632   1.405       .  A
C631        N637   1.345       .  A
C632        C633   1.404       .  A
C632        H643   1.082       .  S
C633        C642   1.378       .  A
C633        C634   1.385       .  A
C634        C635   1.400       .  A
C634        N640   1.341       .  A
C635        C636   1.400       .  A
C635        H644   1.082       .  S
C636        C639   1.374       .  A
N637        C638   1.357       .  A
N637        H647   1.045       .  S
C638        C639   1.394       .  A
C639        H645   1.082       .  S
N640        C641   1.353       .  A
N640        H648   1.045       .  S
C641        C642   1.395       .  A
C642        H646   1.082       .  S
C649        C654   1.384       .  A
C649        C650   1.405       .  A
C649        N655   1.342       .  A
C650        C651   1.403       .  A
C650        H661   1.082       .  S
C651        C660   1.382       .  A
C651        C652   1.385       .  A
C652        C653   1.402       .  A
C652        N658   1.341       .  A
C653        C654   1.400       .  A
C653        H662   1.082       .  S
C654        C657   1.377       .  A
N655        C656   1.356       .  A
N655        H665   1.045       .  S
C656        C657   1.393       .  A
C657        H663   1.082       .  S
N658        C659   1.355       .  A
N658        H666   1.045       .  S
C659        C660   1.396       .  A
C660        H664   1.082       .  S
C667        C672   1.384       .  A
C667        C668   1.404       .  A
C667        N673   1.344       .  A
C668        C669   1.403       .  A
C668        H679   1.082       .  S
C669        C678   1.378       .  A
C669        C670   1.384       .  A
C670        C671   1.410       .  A
C670        N676   1.349       .  A
C671        C672   1.409       .  A
C671        H680   1.082       .  S
C672        C675   1.385       .  A
N673        C674   1.356       .  A
N673        H683   1.045       .  S
C674        C675   1.399       .  A
C675        H681   1.082       .  S
N676        C677   1.359       .  A
N676        H684   1.045       .  S
C677        C678   1.395       .  A
C678        H682   1.082       .  S
C685        C690   1.385       .  A
C685        C686   1.400       .  A
C685        N691   1.337       .  A
C686        C687   1.398       .  A
C686        H697   1.083       .  S
C687        C696   1.377       .  A
C687        C688   1.386       .  A
C688        C689   1.403       .  A
C688        N694   1.339       .  A
C689        C690   1.400       .  A
C689        H698   1.083       .  S
C690        C693   1.381       .  A
N691        C692   1.354       .  A
N691        H701   1.045       .  S
C692        C693   1.393       .  A
C693        H699   1.082       .  S
N694        C695   1.354       .  A
N694        H702   1.045       .  S
C695        C696   1.392       .  A
C696        H700   1.083       .  S
C703        C708   1.384       .  A
C703        C704   1.405       .  A
C703        N709   1.343       .  A
C704        C705   1.403       .  A
C704        H715   1.082       .  S
C705        C714   1.381       .  A
C705        C706   1.384       .  A
C706        C707   1.405       .  A
C706        N712   1.343       .  A
C707        C708   1.403       .  A
C707        H716   1.082       .  S
C708        C711   1.381       .  A
N709        C710   1.356       .  A
N709        H719   1.045       .  S
C710        C711   1.396       .  A
C711        H717   1.082       .  S
N712        C713   1.356       .  A
N712        H720   1.045       .  S
C713        C714   1.397       .  A
C714        H718   1.082       .  S
C721        C726   1.384       .  A
C721        C722   1.407       .  A
C721        N727   1.346       .  A
C722        C723   1.407       .  A
C722        H733   1.082       .  S
C723        C732   1.386       .  A
C723        C724   1.384       .  A
C724        C725   1.403       .  A
C724        N730   1.341       .  A
C725        C726   1.401       .  A
C725        H734   1.083       .  S
C726        C729   1.376       .  A
N727        C728   1.356       .  A
N727        H737   1.045       .  S
C728        C729   1.395       .  A
C729        H735   1.083       .  S
N730        C731   1.356       .  A
N730        H738   1.045       .  S
C731        C732   1.398       .  A
C732        H736   1.082       .  S
C739        C744   1.384       .  A
C739        C740   1.405       .  A
C739        N745   1.346       .  A
C740        C741   1.405       .  A
C740        H751   1.082       .  S
C741        C750   1.378       .  A
C741        C742   1.385       .  A
C742        C743   1.401       .  A
C742        N748   1.343       .  A
C743        C744   1.401       .  A
C743        H752   1.082       .  S
C744        C747   1.375       .  A
N745        C746   1.356       .  A
N745        H755   1.045       .  S
C746        C747   1.394       .  A
C747        H753   1.083       .  S
N748        C749   1.354       .  A
N748        H756   1.045       .  S
C749        C750   1.397       .  A
C750        H754   1.083       .  S
C757        C762   1.387       .  A
C757        C758   1.398       .  A
C757        N763   1.344       .  A
C758        C759   1.399       .  A
C758        H769   1.083   1_554  S
C759        C768   1.369       .  A
C759        C760   1.386       .  A
C760        C761   1.402       .  A
C760        N766   1.347       .  A
C761        C762   1.404       .  A
C761        H770   1.083       .  S
C762        C765   1.374       .  A
N763        C764   1.352       .  A
N763        H773   1.045   1_554  S
C764        C765   1.394       .  A
C765        H771   1.083       .  S
N766        C767   1.355       .  A
N766        H774   1.045       .  S
C767        C768   1.391       .  A
C768        H772   1.083       .  S
C775        C780   1.384       .  A
C775        C776   1.405       .  A
C775        N781   1.346       .  A
C776        C777   1.405       .  A
C776        H787   1.082       .  S
C777        C786   1.380       .  A
C777        C778   1.384       .  A
C778        C779   1.403       .  A
C778        N784   1.343       .  A
C779        C780   1.403       .  A
C779        H788   1.082       .  S
C780        C783   1.378       .  A
N781        C782   1.357       .  A
N781        H791   1.045   1_556  S
C782        C783   1.395       .  A
C783        H789   1.082       .  S
N784        C785   1.355       .  A
N784        H792   1.045       .  S
C785        C786   1.396       .  A
C786        H790   1.082       .  S
C793        C798   1.384       .  A
C793        C794   1.404       .  A
C793        N799   1.344       .  A
C794        C795   1.403       .  A
C794        H805   1.082       .  S
C795        C804   1.379       .  A
C795        C796   1.384       .  A
C796        C797   1.409       .  A
C796        N802   1.348       .  A
C797        C798   1.408       .  A
C797        H806   1.082       .  S
C798        C801   1.385       .  A
N799        C800   1.356       .  A
N799        H809   1.045       .  S
C800        C801   1.399       .  A
C801        H807   1.082       .  S
N802        C803   1.359       .  A
N802        H810   1.045       .  S
C803        C804   1.395       .  A
C804        H808   1.082       .  S
C811        C816   1.387       .  A
C811        C812   1.398       .  A
C811        N817   1.343       .  A
C812        C813   1.399       .  A
C812        H823   1.083       .  S
C813        C822   1.369       .  A
C813        C814   1.387       .  A
C814        C815   1.400       .  A
C814        N820   1.345       .  A
C815        C816   1.401       .  A
C815        H824   1.083       .  S
C816        C819   1.371       .  A
N817        C818   1.351       .  A
N817        H827   1.045       .  S
C818        C819   1.393       .  A
C819        H825   1.083       .  S
N820        C821   1.354       .  A
N820        H828   1.045       .  S
C821        C822   1.391       .  A
C822        H826   1.083       .  S
C829        C834   1.385       .  A
C829        C830   1.401       .  A
C829        N835   1.342       .  A
C830        C831   1.400       .  A
C830        H841   1.082       .  S
C831        C840   1.374       .  A
C831        C832   1.385       .  A
C832        C833   1.402       .  A
C832        N838   1.343       .  A
C833        C834   1.402       .  A
C833        H842   1.082       .  S
C834        C837   1.375       .  A
N835        C836   1.354       .  A
N835        H845   1.045       .  S
C836        C837   1.394       .  A
C837        H843   1.082       .  S
N838        C839   1.355       .  A
N838        H846   1.045       .  S
C839        C840   1.393       .  A
C840        H844   1.082       .  S
C847        C852   1.384       .  A
C847        C848   1.408       .  A
C847        N853   1.346       .  A
C848        C849   1.407   1_455  A
C848        H859   1.082       .  S
C849        C858   1.385       .  A
C849        C850   1.384       .  A
C850        C851   1.405       .  A
C850        N856   1.344       .  A
C851        C852   1.404   1_655  A
C851        H860   1.082       .  S
C852        C855   1.382       .  A
N853        C854   1.357       .  A
N853        H863   1.045       .  S
C854        C855   1.397       .  A
C855        H861   1.082       .  S
N856        C857   1.356       .  A
N856        H864   1.045       .  S
C857        C858   1.398       .  A
C858        H862   1.082       .  S
C865        C870   1.384       .  A
C865        C866   1.405       .  A
C865        N871   1.345       .  A
C866        C867   1.405       .  A
C866        H877   1.082       .  S
C867        C876   1.380       .  A
C867        C868   1.384       .  A
C868        C869   1.404       .  A
C868        N874   1.345       .  A
C869        C870   1.403       .  A
C869        H878   1.082       .  S
C870        C873   1.378       .  A
N871        C872   1.356       .  A
N871        H881   1.045       .  S
C872        C873   1.395       .  A
C873        H879   1.082       .  S
N874        C875   1.356       .  A
N874        H882   1.045       .  S
C875        C876   1.396       .  A
C876        H880   1.082       .  S
C883        C888   1.384       .  A
C883        C884   1.403       .  A
C883        N889   1.342       .  A
C884        C885   1.402       .  A
C884        H895   1.082       .  S
C885        C894   1.377       .  A
C885        C886   1.384       .  A
C886        C887   1.404       .  A
C886        N892   1.343       .  A
C887        C888   1.402       .  A
C887        H896   1.082       .  S
C888        C891   1.379       .  A
N889        C890   1.356       .  A
N889        H899   1.045       .  S
C890        C891   1.395       .  A
C891        H897   1.082       .  S
N892        C893   1.356       .  A
N892        H900   1.045       .  S
C893        C894   1.394       .  A
C894        H898   1.082       .  S
C901        C906   1.386       .  A
C901        C902   1.402       .  A
C901        N907   1.341       .  A
C902        C903   1.401   1_565  A
C902        H913   1.083       .  S
C903        C912   1.379       .  A
C903        C904   1.387       .  A
C904        C905   1.403       .  A
C904        N910   1.341       .  A
C905        C906   1.400   1_545  A
C905        H914   1.083       .  S
C906        C909   1.381       .  A
N907        C908   1.355       .  A
N907        H917   1.045       .  S
C908        C909   1.392       .  A
C909        H915   1.082       .  S
N910        C911   1.355       .  A
N910        H918   1.045       .  S
C911        C912   1.393       .  A
C912        H916   1.083       .  S
C919        C924   1.384       .  A
C919        C920   1.404       .  A
C919        N925   1.342       .  A
C920        C921   1.402       .  A
C920        H931   1.082       .  S
C921        C930   1.381       .  A
C921        C922   1.384       .  A
C922        C923   1.403       .  A
C922        N928   1.341       .  A
C923        C924   1.401       .  A
C923        H932   1.082       .  S
C924        C927   1.379       .  A
N925        C926   1.356       .  A
N925        H935   1.045       .  S
C926        C927   1.394       .  A
C927        H933   1.082       .  S
N928        C929   1.355       .  A
N928        H936   1.045       .  S
C929        C930   1.395       .  A
C930        H934   1.082       .  S
C937        C942   1.384       .  A
C937        C938   1.407       .  A
C937        N943   1.349       .  A
C938        C939   1.407       .  A
C938        H949   1.082       .  S
C939        C948   1.382       .  A
C939        C940   1.384       .  A
C940        C941   1.404       .  A
C940        N946   1.346       .  A
C941        C942   1.404       .  A
C941        H950   1.082       .  S
C942        C945   1.377       .  A
N943        C944   1.358       .  A
N943        H953   1.045       .  S
C944        C945   1.395       .  A
C945        H951   1.082       .  S
N946        C947   1.356       .  A
N946        H954   1.045       .  S
C947        C948   1.397       .  A
C948        H952   1.082       .  S
C955        C960   1.384   1_565  A
C955        C956   1.406       .  A
C955        N961   1.346       .  A
C956        C957   1.405       .  A
C956        H967   1.082       .  S
C957        C966   1.381       .  A
C957        C958   1.385   1_565  A
C958        C959   1.402       .  A
C958        N964   1.343       .  A
C959        C960   1.401       .  A
C959        H968   1.082       .  S
C960        C963   1.377       .  A
N961        C962   1.357   1_565  A
N961        H971   1.045       .  S
C962        C963   1.394       .  A
C963        H969   1.082       .  S
N964        C965   1.355       .  A
N964        H972   1.045       .  S
C965        C966   1.397   1_545  A
C966        H970   1.082       .  S
C973        C978   1.384       .  A
C973        C974   1.402       .  A
C973        N979   1.342   1_565  A
C974        C975   1.401       .  A
C974        H985   1.082       .  S
C975        C984   1.377       .  A
C975        C976   1.384       .  A
C976        C977   1.406       .  A
C976        N982   1.344       .  A
C977        C978   1.404       .  A
C977        H986   1.082       .  S
C978        C981   1.380       .  A
N979        C980   1.355       .  A
N979        H989   1.045       .  S
C980        C981   1.397   1_545  A
C981        H987   1.082       .  S
N982        C983   1.357       .  A
N982        H990   1.045       .  S
C983        C984   1.394       .  A
C984        H988   1.082       .  S
C991        C996   1.386       .  A
C991        C992   1.403   1_545  A
C991        N997   1.346       .  A
C992        C993   1.404       .  A
C992       H1003   1.083       .  S
C993       C1002   1.377       .  A
C993        C994   1.387       .  A
C994        C995   1.399       .  A
C994       N1000   1.342       .  A
C995        C996   1.398   1_565  A
C995       H1004   1.083       .  S
C996        C999   1.371       .  A
N997        C998   1.355       .  A
N997       H1007   1.045       .  S
C998        C999   1.392       .  A
C999       H1005   1.083       .  S
N1000      C1001   1.352       .  A
N1000      H1008   1.045       .  S
C1001      C1002   1.394       .  A
C1002      H1006   1.083       .  S
C1009      C1014   1.385       .  A
C1009      C1010   1.405       .  A
C1009      N1015   1.343       .  A
C1010      C1011   1.404       .  A
C1010      H1021   1.082       .  S
C1011      C1020   1.381       .  A
C1011      C1012   1.385       .  A
C1012      C1013   1.402       .  A
C1012      N1018   1.341       .  A
C1013      C1014   1.401       .  A
C1013      H1022   1.082       .  S
C1014      C1017   1.377       .  A
N1015      C1016   1.356       .  A
N1015      H1025   1.045       .  S
C1016      C1017   1.394       .  A
C1017      H1023   1.082       .  S
N1018      C1019   1.355       .  A
N1018      H1026   1.045       .  S
C1019      C1020   1.396       .  A
C1020      H1024   1.082       .  S
C1027      C1032   1.384       .  A
C1027      C1028   1.407       .  A
C1027      N1033   1.344       .  A
C1028      C1029   1.405       .  A
C1028      H1039   1.082       .  S
C1029      C1038   1.383   1_554  A
C1029      C1030   1.384       .  A
C1030      C1031   1.404       .  A
C1030      N1036   1.342   1_554  A
C1031      C1032   1.402       .  A
C1031      H1040   1.082       .  S
C1032      C1035   1.380       .  A
N1033      C1034   1.357       .  A
N1033      H1043   1.045       .  S
C1034      C1035   1.395       .  A
C1035      H1041   1.082       .  S
N1036      C1037   1.356       .  A
N1036      H1044   1.045       .  S
C1037      C1038   1.397       .  A
C1038      H1042   1.082       .  S
C1045      C1050   1.384       .  A
C1045      C1046   1.408       .  A
C1045      N1051   1.348       .  A
C1046      C1047   1.407       .  A
C1046      H1057   1.082       .  S
C1047      C1056   1.383       .  A
C1047      C1048   1.384       .  A
C1048      C1049   1.403       .  A
C1048      N1054   1.344       .  A
C1049      C1050   1.402       .  A
C1049      H1058   1.082       .  S
C1050      C1053   1.378       .  A
N1051      C1052   1.358       .  A
N1051      H1061   1.044       .  S
C1052      C1053   1.395       .  A
C1053      H1059   1.082       .  S
N1054      C1055   1.355       .  A
N1054      H1062   1.045       .  S
C1055      C1056   1.398       .  A
C1056      H1060   1.082       .  S
C1063      C1068   1.386       .  A
C1063      C1064   1.404       .  A
C1063      N1069   1.340       .  A
C1064      C1065   1.400       .  A
C1064      H1075   1.083       .  S
C1065      C1074   1.381       .  A
C1065      C1066   1.385       .  A
C1066      C1067   1.403       .  A
C1066      N1072   1.341       .  A
C1067      C1068   1.401       .  A
C1067      H1076   1.083       .  S
C1068      C1071   1.381       .  A
N1069      C1070   1.355       .  A
N1069      H1079   1.045       .  S
C1070      C1071   1.394       .  A
C1071      H1077   1.083       .  S
N1072      C1073   1.355       .  A
N1072      H1080   1.045       .  S
C1073      C1074   1.393       .  A
C1074      H1078   1.082       .  S
C1081      C1086   1.385       .  A
C1081      C1082   1.400       .  A
C1081      N1087   1.341       .  A
C1082      C1083   1.399       .  A
C1082      H1093   1.082       .  S
C1083      C1092   1.373       .  A
C1083      C1084   1.385       .  A
C1084      C1085   1.405       .  A
C1084      N1090   1.345       .  A
C1085      C1086   1.405       .  A
C1085      H1094   1.082       .  S
C1086      C1089   1.381       .  A
N1087      C1088   1.354       .  A
N1087      H1097   1.045       .  S
C1088      C1089   1.397       .  A
C1089      H1095   1.082       .  S
N1090      C1091   1.356       .  A
N1090      H1098   1.045       .  S
C1091      C1092   1.392       .  A
C1092      H1096   1.083       .  S
C1099      C1104   1.384       .  A
C1099      C1100   1.406   1_655  A
C1099      N1105   1.347       .  A
C1100      C1101   1.405       .  A
C1100      H1111   1.082       .  S
C1101      C1110   1.381       .  A
C1101      C1102   1.384       .  A
C1102      C1103   1.409   1_455  A
C1102      N1108   1.349       .  A
C1103      C1104   1.409       .  A
C1103      H1112   1.082       .  S
C1104      C1107   1.385       .  A
N1105      C1106   1.357       .  A
N1105      H1115   1.045       .  S
C1106      C1107   1.400       .  A
C1107      H1113   1.082       .  S
N1108      C1109   1.358       .  A
N1108      H1116   1.045       .  S
C1109      C1110   1.397       .  A
C1110      H1114   1.082       .  S
C1117      C1122   1.386       .  A
C1117      C1118   1.400       .  A
C1117      N1123   1.346       .  A
C1118      C1119   1.402       .  A
C1118      H1129   1.083       .  S
C1119      C1128   1.371       .  A
C1119      C1120   1.387       .  A
C1120      C1121   1.400       .  A
C1120      N1126   1.345       .  A
C1121      C1122   1.401       .  A
C1121      H1130   1.083       .  S
C1122      C1125   1.370       .  A
N1123      C1124   1.353       .  A
N1123      H1133   1.045       .  S
C1124      C1125   1.392       .  A
C1125      H1131   1.083       .  S
N1126      C1127   1.354       .  A
N1126      H1134   1.045       .  S
C1127      C1128   1.392       .  A
C1128      H1132   1.083       .  S
C1135      C1140   1.384       .  A
C1135      C1136   1.403       .  A
C1135      N1141   1.342       .  A
C1136      C1137   1.402       .  A
C1136      H1147   1.082       .  S
C1137      C1146   1.378       .  A
C1137      C1138   1.384       .  A
C1138      C1139   1.404       .  A
C1138      N1144   1.344       .  A
C1139      C1140   1.403       .  A
C1139      H1148   1.082       .  S
C1140      C1143   1.379       .  A
N1141      C1142   1.356       .  A
N1141      H1151   1.045       .  S
C1142      C1143   1.395       .  A
C1143      H1149   1.082       .  S
N1144      C1145   1.356       .  A
N1144      H1152   1.045       .  S
C1145      C1146   1.396       .  A
C1146      H1150   1.083       .  S
C1153      C1158   1.386       .  A
C1153      C1154   1.405       .  A
C1153      N1159   1.342       .  A
C1154      C1155   1.402       .  A
C1154      H1165   1.083       .  S
C1155      C1164   1.383       .  A
C1155      C1156   1.385       .  A
C1156      C1157   1.401       .  A
C1156      N1162   1.339       .  A
C1157      C1158   1.399       .  A
C1157      H1166   1.083       .  S
C1158      C1161   1.378       .  A
N1159      C1160   1.355       .  A
N1159      H1169   1.045       .  S
C1160      C1161   1.393       .  A
C1161      H1167   1.083       .  S
N1162      C1163   1.354       .  A
N1162      H1170   1.045       .  S
C1163      C1164   1.394       .  A
C1164      H1168   1.082       .  S
C1171      C1176   1.385       .  A
C1171      C1172   1.403       .  A
C1171      N1177   1.344   1_554  A
C1172      C1173   1.402       .  A
C1172      H1183   1.082       .  S
C1173      C1182   1.377       .  A
C1173      C1174   1.385       .  A
C1174      C1175   1.401       .  A
C1174      N1180   1.342       .  A
C1175      C1176   1.400       .  A
C1175      H1184   1.082       .  S
C1176      C1179   1.375   1_554  A
N1177      C1178   1.356       .  A
N1177      H1187   1.045       .  S
C1178      C1179   1.393       .  A
C1179      H1185   1.082       .  S
N1180      C1181   1.354       .  A
N1180      H1188   1.045       .  S
C1181      C1182   1.394       .  A
C1182      H1186   1.082       .  S
C1189      C1194   1.385       .  A
C1189      C1190   1.404       .  A
C1189      N1195   1.345       .  A
C1190      C1191   1.403       .  A
C1190      H1201   1.082       .  S
C1191      C1200   1.378       .  A
C1191      C1192   1.385       .  A
C1192      C1193   1.404       .  A
C1192      N1198   1.345       .  A
C1193      C1194   1.403       .  A
C1193      H1202   1.082       .  S
C1194      C1197   1.378       .  A
N1195      C1196   1.356       .  A
N1195      H1205   1.045       .  S
C1196      C1197   1.395       .  A
C1197      H1203   1.082       .  S
N1198      C1199   1.356       .  A
N1198      H1206   1.045       .  S
C1199      C1200   1.395       .  A
C1200      H1204   1.082       .  S
C1207      C1212   1.386       .  A
C1207      C1208   1.398       .  A
C1207      N1213   1.343       .  A
C1208      C1209   1.399       .  A
C1208      H1219   1.083       .  S
C1209      C1218   1.369       .  A
C1209      C1210   1.386       .  A
C1210      C1211   1.402       .  A
C1210      N1216   1.347       .  A
C1211      C1212   1.403       .  A
C1211      H1220   1.083       .  S
C1212      C1215   1.374       .  A
N1213      C1214   1.353       .  A
N1213      H1223   1.045       .  S
C1214      C1215   1.394       .  A
C1215      H1221   1.083       .  S
N1216      C1217   1.355       .  A
N1216      H1224   1.045       .  S
C1217      C1218   1.393       .  A
C1218      H1222   1.083       .  S
C1225      C1230   1.385       .  A
C1225      C1226   1.405       .  A
C1225      N1231   1.344       .  A
C1226      C1227   1.403       .  A
C1226      H1237   1.082       .  S
C1227      C1236   1.379       .  A
C1227      C1228   1.385       .  A
C1228      C1229   1.402       .  A
C1228      N1234   1.342       .  A
C1229      C1230   1.401       .  A
C1229      H1238   1.082       .  S
C1230      C1233   1.377       .  A
N1231      C1232   1.356       .  A
N1231      H1241   1.045       .  S
C1232      C1233   1.394       .  A
C1233      H1239   1.082       .  S
N1234      C1235   1.354       .  A
N1234      H1242   1.045       .  S
C1235      C1236   1.395       .  A
C1236      H1240   1.082       .  S
C1243      C1248   1.384       .  A
C1243      C1244   1.406       .  A
C1243      N1249   1.346       .  A
C1244      C1245   1.406       .  A
C1244      H1255   1.082       .  S
C1245      C1254   1.380       .  A
C1245      C1246   1.385       .  A
C1246      C1247   1.399       .  A
C1246      N1252   1.340       .  A
C1247      C1248   1.398       .  A
C1247      H1256   1.082       .  S
C1248      C1251   1.372       .  A
N1249      C1250   1.358       .  A
N1249      H1259   1.045       .  S
C1250      C1251   1.392       .  A
C1251      H1257   1.083       .  S
N1252      C1253   1.354       .  A
N1252      H1260   1.045       .  S
C1253      C1254   1.397       .  A
C1254      H1258   1.082       .  S
C1261      C1266   1.386       .  A
C1261      C1262   1.402       .  A
C1261      N1267   1.345       .  A
C1262      C1263   1.403       .  A
C1262      H1273   1.083       .  S
C1263      C1272   1.376       .  A
C1263      C1264   1.387       .  A
C1264      C1265   1.401       .  A
C1264      N1270   1.344       .  A
C1265      C1266   1.400       .  A
C1265      H1274   1.083       .  S
C1266      C1269   1.373       .  A
N1267      C1268   1.353       .  A
N1267      H1277   1.045       .  S
C1268      C1269   1.393       .  A
C1269      H1275   1.083       .  S
N1270      C1271   1.353       .  A
N1270      H1278   1.045       .  S
C1271      C1272   1.395       .  A
C1272      H1276   1.083       .  S
C1279      C1284   1.384       .  A
C1279      C1280   1.405       .  A
C1279      N1285   1.344       .  A
C1280      C1281   1.403       .  A
C1280      H1291   1.082       .  S
C1281      C1290   1.379       .  A
C1281      C1282   1.384       .  A
C1282      C1283   1.402       .  A
C1282      N1288   1.343       .  A
C1283      C1284   1.402       .  A
C1283      H1292   1.082       .  S
C1284      C1287   1.377       .  A
N1285      C1286   1.357       .  A
N1285      H1295   1.045       .  S
C1286      C1287   1.394       .  A
C1287      H1293   1.082       .  S
N1288      C1289   1.355       .  A
N1288      H1296   1.045       .  S
C1289      C1290   1.396       .  A
C1290      H1294   1.082       .  S
C1297      C1302   1.384       .  A
C1297      C1298   1.406       .  A
C1297      N1303   1.347       .  A
C1298      C1299   1.405       .  A
C1298      H1309   1.082       .  S
C1299      C1308   1.381       .  A
C1299      C1300   1.384       .  A
C1300      C1301   1.405       .  A
C1300      N1306   1.345       .  A
C1301      C1302   1.405       .  A
C1301      H1310   1.082       .  S
C1302      C1305   1.381       .  A
N1303      C1304   1.356       .  A
N1303      H1313   1.045       .  S
C1304      C1305   1.398       .  A
C1305      H1311   1.082       .  S
N1306      C1307   1.356       .  A
N1306      H1314   1.045       .  S
C1307      C1308   1.396       .  A
C1308      H1312   1.082       .  S
C1315      C1320   1.385       .  A
C1315      C1316   1.406       .  A
C1315      N1321   1.342       .  A
C1316      C1317   1.402       .  A
C1316      H1327   1.083       .  S
C1317      C1326   1.382       .  A
C1317      C1318   1.385       .  A
C1318      C1319   1.401       .  A
C1318      N1324   1.340       .  A
C1319      C1320   1.400       .  A
C1319      H1328   1.083       .  S
C1320      C1323   1.378       .  A
N1321      C1322   1.356       .  A
N1321      H1331   1.045       .  S
C1322      C1323   1.393       .  A
C1323      H1329   1.083       .  S
N1324      C1325   1.354       .  A
N1324      H1332   1.045       .  S
C1325      C1326   1.395       .  A
C1326      H1330   1.082       .  S
C1333      C1338   1.384       .  A
C1333      C1334   1.403       .  A
C1333      N1339   1.344       .  A
C1334      C1335   1.402       .  A
C1334      H1345   1.082       .  S
C1335      C1344   1.376       .  A
C1335      C1336   1.384       .  A
C1336      C1337   1.405       .  A
C1336      N1342   1.345       .  A
C1337      C1338   1.405       .  A
C1337      H1346   1.082       .  S
C1338      C1341   1.379       .  A
N1339      C1340   1.356       .  A
N1339      H1349   1.045       .  S
C1340      C1341   1.396       .  A
C1341      H1347   1.082       .  S
N1342      C1343   1.357       .  A
N1342      H1350   1.045       .  S
C1343      C1344   1.394       .  A
C1344      H1348   1.082       .  S
C1351      C1356   1.385       .  A
C1351      C1352   1.402       .  A
C1351      N1357   1.342       .  A
C1352      C1353   1.401       .  A
C1352      H1363   1.082       .  S
C1353      C1362   1.376       .  A
C1353      C1354   1.385       .  A
C1354      C1355   1.402       .  A
C1354      N1360   1.342       .  A
C1355      C1356   1.401       .  A
C1355      H1364   1.082       .  S
C1356      C1359   1.377       .  A
N1357      C1358   1.355       .  A
N1357      H1367   1.045       .  S
C1358      C1359   1.394       .  A
C1359      H1365   1.082       .  S
N1360      C1361   1.355       .  A
N1360      H1368   1.045       .  S
C1361      C1362   1.394       .  A
C1362      H1366   1.082       .  S
C1369      C1374   1.385       .  A
C1369      C1370   1.401       .  A
C1369      N1375   1.337       .  A
C1370      C1371   1.398       .  A
C1370      H1381   1.083       .  S
C1371      C1380   1.379       .  A
C1371      C1372   1.386       .  A
C1372      C1373   1.404       .  A
C1372      N1378   1.339       .  A
C1373      C1374   1.400       .  A
C1373      H1382   1.083       .  S
C1374      C1377   1.383       .  A
N1375      C1376   1.353       .  A
N1375      H1385   1.045       .  S
C1376      C1377   1.395       .  A
C1377      H1383   1.082       .  S
N1378      C1379   1.355       .  A
N1378      H1386   1.045       .  S
C1379      C1380   1.392       .  A
C1380      H1384   1.083       .  S
C1387      C1392   1.384       .  A
C1387      C1388   1.405       .  A
C1387      N1393   1.343       .  A
C1388      C1389   1.404   1_545  A
C1388      H1399   1.082       .  S
C1389      C1398   1.381       .  A
C1389      C1390   1.385       .  A
C1390      C1391   1.406       .  A
C1390      N1396   1.345       .  A
C1391      C1392   1.404   1_565  A
C1391      H1400   1.082       .  S
C1392      C1395   1.382       .  A
N1393      C1394   1.356       .  A
N1393      H1403   1.045       .  S
C1394      C1395   1.396       .  A
C1395      H1401   1.082       .  S
N1396      C1397   1.356       .  A
N1396      H1404   1.045       .  S
C1397      C1398   1.396       .  A
C1398      H1402   1.082       .  S
C1405      C1410   1.384       .  A
C1405      C1406   1.405       .  A
C1405      N1411   1.346       .  A
C1406      C1407   1.404       .  A
C1406      H1417   1.082       .  S
C1407      C1416   1.378       .  A
C1407      C1408   1.384       .  A
C1408      C1409   1.402       .  A
C1408      N1414   1.343       .  A
C1409      C1410   1.402       .  A
C1409      H1418   1.082       .  S
C1410      C1413   1.377       .  A
N1411      C1412   1.357   1_554  A
N1411      H1421   1.045   1_554  S
C1412      C1413   1.395   1_556  A
C1413      H1419   1.082   1_554  S
N1414      C1415   1.355       .  A
N1414      H1422   1.045       .  S
C1415      C1416   1.397       .  A
C1416      H1420   1.083       .  S
C1423      C1428   1.387       .  A
C1423      C1424   1.401       .  A
C1423      N1429   1.344       .  A
C1424      C1425   1.401       .  A
C1424      H1435   1.083       .  S
C1425      C1434   1.374       .  A
C1425      C1426   1.385       .  A
C1426      C1427   1.400       .  A
C1426      N1432   1.345       .  A
C1427      C1428   1.402       .  A
C1427      H1436   1.083       .  S
C1428      C1431   1.372       .  A
N1429      C1430   1.354       .  A
N1429      H1439   1.045   1_554  S
C1430      C1431   1.393       .  A
C1431      H1437   1.083       .  S
N1432      C1433   1.354       .  A
N1432      H1440   1.045       .  S
C1433      C1434   1.393       .  A
C1434      H1438   1.083       .  S
C1441      C1446   1.384       .  A
C1441      C1442   1.404       .  A
C1441      N1447   1.344   1_655  A
C1442      C1443   1.404       .  A
C1442      H1453   1.082       .  S
C1443      C1452   1.380       .  A
C1443      C1444   1.384       .  A
C1444      C1445   1.405       .  A
C1444      N1450   1.345       .  A
C1445      C1446   1.405       .  A
C1445      H1454   1.082       .  S
C1446      C1449   1.380       .  A
N1447      C1448   1.355       .  A
N1447      H1457   1.045       .  S
C1448      C1449   1.398   1_455  A
C1449      H1455   1.083       .  S
N1450      C1451   1.357       .  A
N1450      H1458   1.045       .  S
C1451      C1452   1.397       .  A
C1452      H1456   1.082       .  S
C1459      C1464   1.387       .  A
C1459      C1460   1.400       .  A
C1459      N1465   1.338       .  A
C1460      C1461   1.397   1_455  A
C1460      H1471   1.083       .  S
C1461      C1470   1.375       .  A
C1461      C1462   1.386       .  A
C1462      C1463   1.400       .  A
C1462      N1468   1.339       .  A
C1463      C1464   1.399   1_655  A
C1463      H1472   1.083       .  S
C1464      C1467   1.377       .  A
N1465      C1466   1.354       .  A
N1465      H1475   1.045       .  S
C1466      C1467   1.391       .  A
C1467      H1473   1.083       .  S
N1468      C1469   1.354       .  A
N1468      H1476   1.045       .  S
C1469      C1470   1.390       .  A
C1470      H1474   1.083       .  S
C1477      C1482   1.385       .  A
C1477      C1478   1.402       .  A
C1477      N1483   1.342       .  A
C1478      C1479   1.401       .  A
C1478      H1489   1.082       .  S
C1479      C1488   1.376       .  A
C1479      C1480   1.384       .  A
C1480      C1481   1.404       .  A
C1480      N1486   1.344       .  A
C1481      C1482   1.404       .  A
C1481      H1490   1.082       .  S
C1482      C1485   1.379       .  A
N1483      C1484   1.355       .  A
N1483      H1493   1.045       .  S
C1484      C1485   1.395       .  A
C1485      H1491   1.082       .  S
N1486      C1487   1.357       .  A
N1486      H1494   1.045       .  S
C1487      C1488   1.393       .  A
C1488      H1492   1.082       .  S
C1495      C1500   1.385       .  A
C1495      C1496   1.403       .  A
C1495      N1501   1.343       .  A
C1496      C1497   1.403       .  A
C1496      H1507   1.082       .  S
C1497      C1506   1.380       .  A
C1497      C1498   1.384       .  A
C1498      C1499   1.406       .  A
C1498      N1504   1.345       .  A
C1499      C1500   1.405       .  A
C1499      H1508   1.082       .  S
C1500      C1503   1.381       .  A
N1501      C1502   1.355       .  A
N1501      H1511   1.045       .  S
C1502      C1503   1.397       .  A
C1503      H1509   1.082       .  S
N1504      C1505   1.357       .  A
N1504      H1512   1.045   1_455  S
C1505      C1506   1.395       .  A
C1506      H1510   1.082       .  S
C1513      C1518   1.385       .  A
C1513      C1514   1.404       .  A
C1513      N1519   1.344       .  A
C1514      C1515   1.403       .  A
C1514      H1525   1.082       .  S
C1515      C1524   1.378       .  A
C1515      C1516   1.384       .  A
C1516      C1517   1.402       .  A
C1516      N1522   1.343       .  A
C1517      C1518   1.402       .  A
C1517      H1526   1.082       .  S
C1518      C1521   1.376       .  A
N1519      C1520   1.357       .  A
N1519      H1529   1.045       .  S
C1520      C1521   1.394       .  A
C1521      H1527   1.082       .  S
N1522      C1523   1.356       .  A
N1522      H1530   1.045       .  S
C1523      C1524   1.395       .  A
C1524      H1528   1.082       .  S
C1531      C1536   1.385       .  A
C1531      C1532   1.403       .  A
C1531      N1537   1.340       .  A
C1532      C1533   1.401       .  A
C1532      H1543   1.083       .  S
C1533      C1542   1.381       .  A
C1533      C1534   1.385       .  A
C1534      C1535   1.404       .  A
C1534      N1540   1.341       .  A
C1535      C1536   1.401       .  A
C1535      H1544   1.083       .  S
C1536      C1539   1.381       .  A
N1537      C1538   1.355       .  A
N1537      H1547   1.045       .  S
C1538      C1539   1.394       .  A
C1539      H1545   1.082       .  S
N1540      C1541   1.356       .  A
N1540      H1548   1.045       .  S
C1541      C1542   1.394       .  A
C1542      H1546   1.082       .  S
C1549      C1554   1.385       .  A
C1549      C1550   1.400   1_655  A
C1549      N1555   1.339   1_655  A
C1550      C1551   1.398   1_455  A
C1550      H1561   1.082       .  S
C1551      C1560   1.374   1_655  A
C1551      C1552   1.385       .  A
C1552      C1553   1.402       .  A
C1552      N1558   1.341       .  A
C1553      C1554   1.400       .  A
C1553      H1562   1.082       .  S
C1554      C1557   1.377       .  A
N1555      C1556   1.353   1_455  A
N1555      H1565   1.045       .  S
C1556      C1557   1.394       .  A
C1557      H1563   1.082       .  S
N1558      C1559   1.354       .  A
N1558      H1566   1.045       .  S
C1559      C1560   1.392   1_655  A
C1560      H1564   1.082       .  S
C1567      C1572   1.384       .  A
C1567      C1568   1.405       .  A
C1567      N1573   1.344       .  A
C1568      C1569   1.404   1_655  A
C1568      H1579   1.082   1_655  S
C1569      C1578   1.380       .  A
C1569      C1570   1.384   1_455  A
C1570      C1571   1.403       .  A
C1570      N1576   1.343   1_655  A
C1571      C1572   1.402       .  A
C1571      H1580   1.082       .  S
C1572      C1575   1.378       .  A
N1573      C1574   1.356       .  A
N1573      H1583   1.045       .  S
C1574      C1575   1.395       .  A
C1575      H1581   1.082       .  S
N1576      C1577   1.356       .  A
N1576      H1584   1.045   1_455  S
C1577      C1578   1.396       .  A
C1578      H1582   1.082       .  S
C1585      C1590   1.386       .  A
C1585      C1586   1.402   1_655  A
C1585      N1591   1.346       .  A
C1586      C1587   1.402       .  A
C1586      H1597   1.083       .  S
C1587      C1596   1.372       .  A
C1587      C1588   1.386       .  A
C1588      C1589   1.400   1_455  A
C1588      N1594   1.345       .  A
C1589      C1590   1.401       .  A
C1589      H1598   1.083       .  S
C1590      C1593   1.372       .  A
N1591      C1592   1.355       .  A
N1591      H1601   1.045       .  S
C1592      C1593   1.393       .  A
C1593      H1599   1.083       .  S
N1594      C1595   1.353       .  A
N1594      H1602   1.045       .  S
C1595      C1596   1.393       .  A
C1596      H1600   1.083       .  S
C1603      C1608   1.384       .  A
C1603      C1604   1.405       .  A
C1603      N1609   1.344       .  A
C1604      C1605   1.404       .  A
C1604      H1615   1.082       .  S
C1605      C1614   1.381       .  A
C1605      C1606   1.384       .  A
C1606      C1607   1.407       .  A
C1606      N1612   1.346       .  A
C1607      C1608   1.406       .  A
C1607      H1616   1.082       .  S
C1608      C1611   1.383   1_554  A
N1609      C1610   1.356       .  A
N1609      H1619   1.045       .  S
C1610      C1611   1.397   1_554  A
C1611      H1617   1.082       .  S
N1612      C1613   1.358       .  A
N1612      H1620   1.045       .  S
C1613      C1614   1.396       .  A
C1614      H1618   1.082       .  S
C1621      C1626   1.384       .  A
C1621      C1622   1.408       .  A
C1621      N1627   1.348       .  A
C1622      C1623   1.408       .  A
C1622      H1633   1.082       .  S
C1623      C1632   1.382       .  A
C1623      C1624   1.384       .  A
C1624      C1625   1.404       .  A
C1624      N1630   1.346       .  A
C1625      C1626   1.404       .  A
C1625      H1634   1.082       .  S
C1626      C1629   1.378       .  A
N1627      C1628   1.359       .  A
N1627      H1637   1.045       .  S
C1628      C1629   1.395       .  A
C1629      H1635   1.082       .  S
N1630      C1631   1.356       .  A
N1630      H1638   1.045       .  S
C1631      C1632   1.398       .  A
C1632      H1636   1.082       .  S
C1639      C1644   1.387       .  A
C1639      C1640   1.401       .  A
C1639      N1645   1.345       .  A
C1640      C1641   1.402       .  A
C1640      H1651   1.083   1_554  S
C1641      C1650   1.374       .  A
C1641      C1642   1.387       .  A
C1642      C1643   1.400       .  A
C1642      N1648   1.344       .  A
C1643      C1644   1.400       .  A
C1643      H1652   1.083       .  S
C1644      C1647   1.373       .  A
N1645      C1646   1.354       .  A
N1645      H1655   1.045   1_554  S
C1646      C1647   1.393       .  A
C1647      H1653   1.083       .  S
N1648      C1649   1.353       .  A
N1648      H1656   1.045       .  S
C1649      C1650   1.394       .  A
C1650      H1654   1.083       .  S
C1657      C1662   1.385       .  A
C1657      C1658   1.402       .  A
C1657      N1663   1.343       .  A
C1658      C1659   1.401       .  A
C1658      H1669   1.082       .  S
C1659      C1668   1.376       .  A
C1659      C1660   1.385       .  A
C1660      C1661   1.404       .  A
C1660      N1666   1.344       .  A
C1661      C1662   1.404       .  A
C1661      H1670   1.082       .  S
C1662      C1665   1.378       .  A
N1663      C1664   1.355       .  A
N1663      H1673   1.045       .  S
C1664      C1665   1.396       .  A
C1665      H1671   1.082       .  S
N1666      C1667   1.356       .  A
N1666      H1674   1.045       .  S
C1667      C1668   1.394       .  A
C1668      H1672   1.082       .  S
C1675      C1680   1.385       .  A
C1675      C1676   1.400       .  A
C1675      N1681   1.341       .  A
C1676      C1677   1.399       .  A
C1676      H1687   1.082       .  S
C1677      C1686   1.373       .  A
C1677      C1678   1.384       .  A
C1678      C1679   1.403       .  A
C1678      N1684   1.343       .  A
C1679      C1680   1.403       .  A
C1679      H1688   1.082       .  S
C1680      C1683   1.376       .  A
N1681      C1682   1.353       .  A
N1681      H1691   1.045       .  S
C1682      C1683   1.396       .  A
C1683      H1689   1.083       .  S
N1684      C1685   1.356       .  A
N1684      H1692   1.045       .  S
C1685      C1686   1.394       .  A
C1686      H1690   1.083       .  S
C1693      C1698   1.386       .  A
C1693      C1694   1.405       .  A
C1693      N1699   1.342       .  A
C1694      C1695   1.402       .  A
C1694      H1705   1.083       .  S
C1695      C1704   1.382       .  A
C1695      C1696   1.385       .  A
C1696      C1697   1.402       .  A
C1696      N1702   1.340       .  A
C1697      C1698   1.400       .  A
C1697      H1706   1.083       .  S
C1698      C1701   1.378       .  A
N1699      C1700   1.355       .  A
N1699      H1709   1.045       .  S
C1700      C1701   1.393       .  A
C1701      H1707   1.083       .  S
N1702      C1703   1.354       .  A
N1702      H1710   1.045       .  S
C1703      C1704   1.395       .  A
C1704      H1708   1.082       .  S
C1711      C1716   1.384       .  A
C1711      C1712   1.402       .  A
C1711      N1717   1.343       .  A
C1712      C1713   1.403       .  A
C1712      H1723   1.082       .  S
C1713      C1722   1.376       .  A
C1713      C1714   1.385       .  A
C1714      C1715   1.400       .  A
C1714      N1720   1.341       .  A
C1715      C1716   1.399       .  A
C1715      H1724   1.082       .  S
C1716      C1719   1.371       .  A
N1717      C1718   1.355       .  A
N1717      H1727   1.045       .  S
C1718      C1719   1.393       .  A
C1719      H1725   1.083       .  S
N1720      C1721   1.354       .  A
N1720      H1728   1.045       .  S
C1721      C1722   1.396       .  A
C1722      H1726   1.083       .  S
C1729      C1734   1.384       .  A
C1729      C1730   1.409       .  A
C1729      N1735   1.350       .  A
C1730      C1731   1.410   1_565  A
C1730      H1741   1.082   1_565  S
C1731      C1740   1.385       .  A
C1731      C1732   1.384   1_545  A
C1732      C1733   1.400       .  A
C1732      N1738   1.343   1_565  A
C1733      C1734   1.399       .  A
C1733      H1742   1.083       .  S
C1734      C1737   1.371       .  A
N1735      C1736   1.359       .  A
N1735      H1745   1.045       .  S
C1736      C1737   1.392       .  A
C1737      H1743   1.083       .  S
N1738      C1739   1.355       .  A
N1738      H1746   1.045       .  S
C1739      C1740   1.399       .  A
C1740      H1744   1.082       .  S
C1747      C1752   1.385       .  A
C1747      C1748   1.402       .  A
C1747      N1753   1.343       .  A
C1748      C1749   1.401       .  A
C1748      H1759   1.082       .  S
C1749      C1758   1.376       .  A
C1749      C1750   1.385       .  A
C1750      C1751   1.403       .  A
C1750      N1756   1.343       .  A
C1751      C1752   1.403       .  A
C1751      H1760   1.082       .  S
C1752      C1755   1.378       .  A
N1753      C1754   1.355       .  A
N1753      H1763   1.045       .  S
C1754      C1755   1.395       .  A
C1755      H1761   1.082       .  S
N1756      C1757   1.355       .  A
N1756      H1764   1.045       .  S
C1757      C1758   1.394       .  A
C1758      H1762   1.082       .  S
