geometry optimzed in LAMMPS
_audit_creation_date              2020-12-01 
_audit_creation_method            'lammps2cif' 
_symmetry_space_group_name_H-M    'P1' 
_symmetry_Int_Tables_number       1 
_symmetry_cell_setting            triclinic 
loop_ 
_symmetry_equiv_pos_as_xyz 
  x,y,z 
_cell_length_a                    28.16219019 
_cell_length_b                    28.526468016419045 
_cell_length_c                    43.91600830874299 
_cell_angle_alpha                 90.23038831501817 
_cell_angle_beta                  90.02372332700448 
_cell_angle_gamma                 90.17901533187904 
loop_ 
_atom_site_label 
_atom_site_type_symbol 
_atom_site_fract_x 
_atom_site_fract_y 
_atom_site_fract_z 
_atom_site_charge 
C1          C  0.80261385  0.63886117  0.33682493     0.03100
C2          C  0.82186658  0.67968309  0.32451809    -0.13000
C3          C  0.86580216  0.69664222  0.33438100     0.00600
C4          C  0.89034111  0.67290906  0.35752533    -0.11500
C5          C  0.87005524  0.63323163  0.37157555     0.03100
C6          C  0.82542594  0.61717282  0.36133660    -0.11000
H7          H  0.80273931  0.69802976  0.30678739     0.08700
H8          H  0.92528418  0.68509775  0.36424484     0.06200
H9          H  0.80902256  0.58684671  0.37178289     0.06100
C10         C  0.73868630  0.82981465  0.08196583     0.03100
C11         C  0.72489768  0.78347065  0.08789208    -0.13000
C12         C  0.68427896  0.76393487  0.07423015     0.00600
C13         C  0.65703193  0.79186595  0.05443306    -0.11500
C14         C  0.66980800  0.83880440  0.04838618     0.03100
C15         C  0.71095561  0.85725371  0.06227685    -0.11000
H16         H  0.74427499  0.76366076  0.10479280     0.08700
H17         H  0.62489176  0.77745842  0.04450572     0.06200
H18         H  0.72040399  0.89359203  0.05890926     0.06100
C19         C  0.35586628  0.76029855  0.34686654     0.03100
C20         C  0.38438338  0.78826986  0.36600046    -0.13000
C21         C  0.36525387  0.82749185  0.38127357     0.00600
C22         C  0.31644565  0.83661057  0.37821577    -0.11500
C23         C  0.28831787  0.81129462  0.35743756     0.03100
C24         C  0.30804222  0.77244426  0.34238361    -0.11000
H25         H  0.42187317  0.78042528  0.36796355     0.08700
H26         H  0.30036800  0.86482934  0.39101033     0.06200
H27         H  0.28691752  0.75298244  0.32599906     0.06100
C28         C  0.86312474  0.26651992  0.09538259     0.03100
C29         C  0.81676153  0.28057535  0.10179502    -0.13000
C30         C  0.79825337  0.32152913  0.08922079     0.00600
C31         C  0.82612332  0.34768594  0.06894802    -0.11500
C32         C  0.87278327  0.33371123  0.06166724     0.03100
C33         C  0.89148084  0.29356442  0.07578784    -0.11000
H34         H  0.79536823  0.26017179  0.11746775     0.08700
H35         H  0.81229868  0.38009540  0.05985620     0.06200
H36         H  0.92830546  0.28412960  0.07258589     0.06100
C37         C  0.12399884  0.88601706  0.29660307     0.42500
N38         N  0.09831167  0.93201245  0.26164950     0.01300
C39         C  0.89852839  0.07317419  0.26260400    -0.06500
H40         H  0.87182864  0.89034572  0.24340959     0.06800
C41         C  0.94734810  0.91320359  0.14366784    -0.06900
Co42       Co  0.01320749  0.98674535  0.28119496     0.74200
N43         N  0.92839858  0.93846439  0.25562177    -0.26100
Co44       Co  0.93117677  0.99171345  0.22219072     0.74100
C45         C  0.89943362  0.89794039  0.15262768     0.42600
N46         N  0.06835802  0.93144540  0.17192975     0.01000
N47         N  0.92937479  0.94218270  0.18763868     0.01100
N48         N  0.94792157  0.06698214  0.30269112    -0.46900
H49         H  0.06167561  0.90524887  0.32820790     0.06800
N50         N  0.95972603  0.93791361  0.27806685     0.01400
N51         N  0.93896033  0.04432387  0.18868378     0.01100
C52         C  0.93090296  0.10356326  0.15921714     0.42700
N53         N  0.10063998  0.92969486  0.19377586    -0.25500
C54         C  0.07338575  0.07065210  0.30101703    -0.06400
N55         N  0.13357207  0.90383479  0.26895406    -0.46600
N56         N  0.91210280  0.08177967  0.18385305    -0.46800
C57         C  0.11643905  0.09302989  0.29051782     0.42500
N58         N  0.96137508  0.03929985  0.27987186     0.01300
N59         N  0.10874077  0.03111017  0.19391209    -0.25500
N60         N  0.06561845  0.93475415  0.28303648    -0.26000
N61         N  0.07890820  0.03274744  0.17085719     0.01000
H62         H  0.17694923  0.06217980  0.20241478     0.06900
H63         H  0.99480554  0.08216216  0.12990466     0.06900
N64         N  0.93187202  0.04131845  0.25666349    -0.26100
N65         N  0.96282791  0.94050624  0.16672910    -0.25700
N66         N  0.10198274  0.03424576  0.26167990     0.01300
C67         C  0.91762641  0.87700350  0.28614851     0.42700
C68         C  0.12773268  0.89165841  0.18908891    -0.06900
N69         N  0.97367140  0.04090013  0.16856804    -0.25700
H70         H  0.96511865  0.90945385  0.12199855     0.06900
N71         N  0.95468013  0.90196883  0.29656227    -0.46900
H72         H  0.15741442  0.88078751  0.20297758     0.06900
C73         C  0.13607097  0.07927074  0.15855663     0.42600
C74         C  0.07871534  0.90670499  0.30615661    -0.06400
Co75       Co  0.10322694  0.98176782  0.22776654     0.73800
N76         N  0.07130128  0.89634010  0.15237452    -0.46600
C77         C  0.90868805  0.09024943  0.29326818     0.42800
N78         N  0.13259457  0.06911549  0.26596907    -0.46600
Co79       Co  0.02110569  0.98626033  0.16902476     0.73900
C80         C  0.97125776  0.07638233  0.14898672    -0.06900
C81         C  0.90027853  0.90050189  0.25863414    -0.06500
N82         N  0.06705404  0.03510407  0.28174647    -0.26000
N83         N  0.89105453  0.91804946  0.17993716    -0.46800
H84         H  0.86706954  0.07878126  0.24896092     0.06800
C85         C  0.14529383  0.05971660  0.18853619    -0.06900
Cl86       Cl  0.01713854  0.98657707  0.22504059    -0.49900
C87         C  0.10753483  0.86967254  0.16188143     0.42600
H88         H  0.05027715  0.07987239  0.31975276     0.06800
N89         N  0.09439605  0.06060778  0.14880728    -0.46600
C90         C  0.23012239  0.64701444  0.09630925     0.03100
C91         C  0.21399298  0.69062910  0.10613754    -0.13000
C92         C  0.17244894  0.70981532  0.09438457     0.00600
C93         C  0.14680701  0.68532076  0.07196444    -0.11500
C94         C  0.16175440  0.64065281  0.06191752     0.03100
C95         C  0.20315128  0.62127443  0.07503964    -0.11000
H96         H  0.23372669  0.70966565  0.12346857     0.08700
H97         H  0.11496654  0.70101833  0.06274060     0.06200
H98         H  0.21414960  0.58608971  0.06910717     0.06100
C99         C  0.74199316  0.15611156  0.35573721     0.03100
C100        C  0.71444634  0.13285875  0.37769278    -0.13000
C101        C  0.66648047  0.14492606  0.38247415     0.00600
C102        C  0.64731388  0.18266826  0.36590571    -0.11500
C103        C  0.67565601  0.20827496  0.34546136     0.03100
C104        C  0.72284618  0.19479179  0.34052834    -0.11000
H105        H  0.72962255  0.10340361  0.38972480     0.08700
H106        H  0.61006115  0.19135367  0.36820559     0.06200
H107        H  0.74367550  0.21254770  0.32328977     0.06100
C108        C  0.16330967  0.34400845  0.36345883     0.03100
C109        C  0.15488632  0.29556642  0.35941237    -0.13000
C110        C  0.17968285  0.27004186  0.33725805     0.00600
C111        C  0.21568013  0.29150182  0.32065522    -0.11500
C112        C  0.22406119  0.33943492  0.32373048     0.03100
C113        C  0.19637883  0.36594076  0.34396003    -0.11000
H114        H  0.12881270  0.27727116  0.37304123     0.08700
H115        H  0.23669182  0.27081663  0.30492061     0.06200
H116        H  0.20159371  0.40350325  0.34469435     0.06100
C117        C  0.35652324  0.14618615  0.05241535     0.03100
C118        C  0.36543956  0.19488204  0.05359764    -0.13000
C119        C  0.34063120  0.22413914  0.07398250     0.00600
C120        C  0.30386951  0.20488429  0.09150939    -0.11500
C121        C  0.29382883  0.15683623  0.09044391     0.03100
C122        C  0.32148934  0.12753074  0.07188766    -0.11000
H123        H  0.39287254  0.21005786  0.03942202     0.08700
H124        H  0.28424906  0.22691551  0.10717500     0.06200
H125        H  0.31566837  0.09004539  0.07290146     0.06100
C126        C  0.64307437  0.56594713  0.27014148     0.42500
N127        N  0.58202822  0.55982909  0.24156004     0.01300
C128        C  0.41718816  0.38217294  0.23879672    -0.06500
H129        H  0.58396247  0.32125329  0.22492851     0.06800
C130        C  0.59832773  0.43071188  0.12656806    -0.06900
Co131      Co  0.52133224  0.47948651  0.26063359     0.74200
N132        N  0.55994288  0.39144183  0.23367591    -0.26100
Co133      Co  0.50915157  0.40213781  0.20035601     0.74100
C134        C  0.61915178  0.38678202  0.13628487     0.42600
N135        N  0.57135850  0.54323386  0.15003158     0.01000
N136        N  0.56100817  0.40300358  0.16580873     0.01100
N137        N  0.42776020  0.43370007  0.27756918    -0.46900
H138        H  0.62292782  0.50067346  0.29777324     0.06800
N139        N  0.56476466  0.42021032  0.25699233     0.01400
N140        N  0.45763008  0.41135487  0.16741189     0.01100
C141        C  0.40821672  0.39034980  0.13248875     0.42700
N142        N  0.57615883  0.57088800  0.17392121    -0.25500
C143        C  0.45107803  0.55346777  0.28874720    -0.06400
N144        N  0.61971284  0.58654834  0.24689881    -0.46600
N145        N  0.42678151  0.37848889  0.15963988    -0.46800
C146        C  0.43685412  0.60177344  0.28106211     0.42500
N147        N  0.46306728  0.43551517  0.25786033     0.01300
N148        N  0.47270421  0.57784203  0.17743106    -0.25500
N149        N  0.57925899  0.52398971  0.26050429    -0.26000
N150        N  0.46920637  0.54817573  0.15432294     0.01000
H151        H  0.42907323  0.63593083  0.19183715     0.06900
H152        H  0.43012619  0.45247645  0.10226576     0.06900
N153        N  0.45798901  0.40578880  0.23493127    -0.26100
N154        N  0.56305257  0.43815378  0.14627892    -0.25700
N155        N  0.48014270  0.57288122  0.24511631     0.01300
C156        C  0.60545406  0.35908212  0.26929458     0.42700
C157        C  0.60779472  0.60441678  0.16753455    -0.06900
N158        N  0.46135672  0.44454243  0.14681103    -0.25700
H159        H  0.60873022  0.45382748  0.10825742     0.06900
N160        N  0.59098858  0.40184543  0.27902891    -0.46900
H161        H  0.61463012  0.63488301  0.18163209     0.06900
C162        C  0.40900580  0.59267592  0.14900976     0.42600
C163        C  0.61659642  0.52467203  0.27920115    -0.06400
Co164      Co  0.52795732  0.57114074  0.20951077     0.73800
N165        N  0.59625686  0.55853089  0.12635081    -0.46600
C166        C  0.39747913  0.40073033  0.26722977     0.42800
N167        N  0.45655405  0.61063999  0.25368663    -0.46600
Co168      Co  0.51632707  0.49368681  0.14883218     0.73900
C169        C  0.43138738  0.43439114  0.12385193    -0.06900
C170        C  0.58475976  0.35239051  0.23904617    -0.06500
N171        N  0.47807610  0.53890734  0.26523970    -0.26000
N172        N  0.59466870  0.37153409  0.16083588    -0.46800
H173        H  0.40331224  0.35536078  0.22372390     0.06800
C174        C  0.43594131  0.60771528  0.17596536    -0.06900
Cl175      Cl  0.51887646  0.48659678  0.20483843    -0.49900
C176        C  0.62076738  0.59690648  0.13577868     0.42600
H177        H  0.44524332  0.53344690  0.30917779     0.06800
N178        N  0.43196273  0.55587148  0.13686022    -0.46600
C179        C  0.48966814  0.95175703  0.48459606     0.02300
C180        C  0.48825745  0.95136785  0.45227415     0.02200
C181        C  0.51506432  0.98484848  0.43611239    -0.18300
C182        C  0.54439700  0.01765435  0.45104996     0.02300
C183        C  0.54485358  0.01859593  0.48326815     0.02200
C184        C  0.51793653  0.98553249  0.49941347    -0.18300
H185        H  0.51908663  0.98604227  0.52407433     0.04300
H186        H  0.51290949  0.98541877  0.41149213     0.04300
C187        C  0.97871423  0.46174837  0.95251364     0.02300
C188        C  0.98196662  0.46035698  0.98482425     0.02200
C189        C  0.01448202  0.49030494  0.99976474    -0.18300
C190        C  0.04302980  0.52237220  0.98383218     0.02300
C191        C  0.04141752  0.52207766  0.95156550     0.02200
C192        C  0.00897723  0.49244031  0.93652234    -0.18300
H193        H  0.00748063  0.49318121  0.91183107     0.04300
H194        H  0.01712271  0.48918424  0.02441049     0.04300
C195        C  0.98883027  0.51649983  0.44824822     0.02300
C196        C  0.98511576  0.51186130  0.48035239     0.02200
C197        C  0.01289311  0.47749433  0.49504024    -0.18300
C198        C  0.04460724  0.44850448  0.47872289     0.02300
C199        C  0.04912044  0.45519983  0.44689164     0.02200
C200        C  0.02223503  0.48958894  0.43241007    -0.18300
H201        H  0.02607756  0.49420943  0.40801733     0.04300
H202        H  0.00909037  0.47244638  0.51934029     0.04300
C203        C  0.53901208  0.95944571  0.98090528     0.02300
C204        C  0.53744390  0.95949487  0.94856934     0.02200
C205        C  0.50473218  0.98847112  0.93356498    -0.18300
C206        C  0.47536139  0.01969049  0.94945444     0.02300
C207        C  0.47750185  0.02088064  0.98165320     0.02200
C208        C  0.50933620  0.99093382  0.99690183    -0.18300
H209        H  0.51105188  0.99221349  0.02154651     0.04300
H210        H  0.50326892  0.98789773  0.90888468     0.04300
C211        C  0.65129856  0.78339676  0.82770368     0.03100
C212        C  0.62724059  0.80842756  0.85049618    -0.13000
C213        C  0.64959382  0.84618057  0.86558068     0.00600
C214        C  0.69574644  0.85952800  0.85654905    -0.11500
C215        C  0.71896091  0.83530107  0.83310260     0.03100
C216        C  0.69715654  0.79682405  0.81937193    -0.11000
H217        H  0.59129848  0.79841340  0.85646394     0.08700
H218        H  0.71338856  0.88896678  0.86741470     0.06200
H219        H  0.71605599  0.77725656  0.80198356     0.06100
C220        C  0.78794221  0.32170644  0.84936400     0.03100
C221        C  0.81751439  0.35133602  0.86688397    -0.13000
C222        C  0.85967449  0.33427875  0.88030752     0.00600
C223        C  0.87211648  0.28694408  0.87535134    -0.11500
C224        C  0.84436770  0.25798676  0.85637344     0.03100
C225        C  0.80159248  0.27495063  0.84472690    -0.11000
H226        H  0.80903244  0.38820546  0.86890036     0.08700
H227        H  0.90416402  0.27283673  0.88522929     0.06200
H228        H  0.78074217  0.25261521  0.82977005     0.06100
C229        C  0.36444077  0.13157965  0.86501902     0.03100
C230        C  0.32745805  0.10995938  0.84832698    -0.13000
C231        C  0.30404029  0.13433922  0.82503919     0.00600
C232        C  0.32047156  0.17841323  0.81635669    -0.11500
C233        C  0.35861746  0.19955871  0.83146402     0.03100
C234        C  0.37858449  0.17725134  0.85681469    -0.11000
H235        H  0.31608037  0.07466581  0.85366896     0.08700
H236        H  0.30275658  0.19679294  0.79804273     0.06200
H237        H  0.40536013  0.19542359  0.87005960     0.06100
C238        C  0.18587988  0.72187184  0.86046025     0.03100
C239        C  0.22958809  0.70490398  0.85029934    -0.13000
C240        C  0.24134009  0.65757351  0.85374820     0.00600
C241        C  0.20836793  0.62720949  0.86746712    -0.11500
C242        C  0.16570654  0.64424928  0.88051852     0.03100
C243        C  0.15642106  0.69283179  0.87802434    -0.11000
H244        H  0.25229191  0.72749452  0.83679940     0.08700
H245        H  0.21546626  0.59002579  0.86649261     0.06200
H246        H  0.12479911  0.70799749  0.88781702     0.06100
C247        C  0.16598583  0.31987348  0.54690551     0.03100
C248        C  0.20945523  0.33795082  0.55807529    -0.13000
C249        C  0.23841355  0.31179951  0.57778102     0.00600
C250        C  0.22187403  0.26844550  0.58808891    -0.11500
C251        C  0.17819075  0.25007710  0.57832775     0.03100
C252        C  0.15080219  0.27550585  0.55733952    -0.11000
H253        H  0.22041227  0.37312576  0.55209500     0.08700
H254        H  0.24133457  0.25031557  0.60571559     0.06200
H255        H  0.11656832  0.26184821  0.55050189     0.06100
C256        C  0.66955958  0.21037956  0.59133851     0.03100
C257        C  0.64629006  0.18754769  0.56713637    -0.13000
C258        C  0.65982895  0.14200056  0.55821836     0.00600
C259        C  0.69764687  0.12025912  0.57357328    -0.11500
C260        C  0.72203480  0.14388647  0.59684268     0.03100
C261        C  0.70808816  0.18884829  0.60547025    -0.11000
H262        H  0.61710776  0.20482379  0.55573657     0.08700
H263        H  0.70767270  0.08465960  0.56788101     0.06200
H264        H  0.72677645  0.20681912  0.62371299     0.06100
C265        C  0.39859935  0.57934845  0.78534224     0.42500
N266        N  0.42591928  0.53297701  0.75092339     0.01300
C267        C  0.64213695  0.41726249  0.74689339    -0.06500
H268        H  0.64665312  0.59904340  0.73165743     0.06800
C269        C  0.56998781  0.56691320  0.62955098    -0.06900
Co270      Co  0.51714045  0.48693262  0.76822769     0.74200
N271        N  0.59465194  0.54586315  0.74274730    -0.26100
Co272      Co  0.59674403  0.49444672  0.70829528     0.74100
C273        C  0.61614334  0.58701635  0.63790471     0.42600
N274        N  0.45124755  0.53786455  0.65991158     0.01000
N275        N  0.59005777  0.54441836  0.67462438     0.01100
N276        N  0.59119848  0.41227096  0.78638647    -0.46900
H277        H  0.46387143  0.56655585  0.81611893     0.06800
N278        N  0.56453555  0.54175360  0.76566579     0.01400
N279        N  0.59453019  0.44237667  0.67397623     0.01100
C280        C  0.60865673  0.38460302  0.64419031     0.42700
N281        N  0.42090730  0.53734224  0.68288012    -0.25500
C282        C  0.46674887  0.39572052  0.78663938    -0.06400
N283        N  0.38920445  0.55925859  0.75825576    -0.46600
N284        N  0.62583467  0.40867677  0.66847211    -0.46800
C285        C  0.42416481  0.37108161  0.77708960     0.42500
N286        N  0.57483868  0.44073639  0.76493063     0.01300
N287        N  0.42326725  0.43496777  0.68176949    -0.25500
N288        N  0.45941366  0.53318605  0.77186348    -0.26000
N289        N  0.45202519  0.43680494  0.65818989     0.01000
H290        H  0.35815226  0.39806478  0.69050113     0.06900
H291        H  0.53994613  0.39581995  0.61714112     0.06900
N292        N  0.60448322  0.44449304  0.74187840    -0.26100
N293        N  0.55683112  0.54082352  0.65359410    -0.25700
N294        N  0.43281666  0.43146769  0.74903344     0.01300
C295        C  0.60128179  0.60552787  0.77529671     0.42700
C296        C  0.39158358  0.57413983  0.67967581    -0.06900
N297        N  0.55821785  0.44070249  0.65489494    -0.25700
H298        H  0.55278026  0.56651529  0.60752008     0.06900
N299        N  0.56715599  0.57659318  0.78540358    -0.46900
H300        H  0.36299393  0.58355109  0.69489492     0.06900
C301        C  0.39745027  0.38747845  0.64530190     0.42600
C302        C  0.44531226  0.56153223  0.79479227    -0.06400
Co303      Co  0.42494444  0.48421863  0.71621091     0.73800
N304        N  0.44441782  0.57277050  0.64080128    -0.46600
C305        C  0.63316170  0.39499422  0.77619416     0.42800
N306        N  0.40468423  0.39484939  0.75365093    -0.46600
Co307      Co  0.50438478  0.48898691  0.65623002     0.73900
C308        C  0.56394172  0.40535953  0.63539788    -0.06900
C309        C  0.61944623  0.58572637  0.74673053    -0.06500
N310        N  0.46900727  0.43261586  0.76818746    -0.26000
N311        N  0.62577569  0.57135346  0.66608859    -0.46800
H312        H  0.67388327  0.41693486  0.73305525     0.06800
C313        C  0.38893436  0.40373796  0.67624491    -0.06900
Cl314      Cl  0.51082944  0.48865045  0.71224841    -0.49900
C315        C  0.40727100  0.59700229  0.65156088     0.42600
H316        H  0.49116055  0.38799319  0.80496258     0.06800
N317        N  0.43701211  0.40984621  0.63539717    -0.46600
C318        C  0.84448168  0.70761547  0.57737109     0.03100
C319        C  0.79945852  0.69055495  0.58544794    -0.13000
C320        C  0.78216723  0.64813067  0.57348808     0.00600
C321        C  0.81167801  0.62106815  0.55464146    -0.11500
C322        C  0.85690665  0.63731839  0.54590470     0.03100
C323        C  0.87264849  0.68111860  0.55717051    -0.11000
H324        H  0.77877103  0.70883231  0.60252350     0.08700
H325        H  0.79973516  0.58665671  0.54742077     0.06200
H326        H  0.90760682  0.69398907  0.55112175     0.06100
C327        C  0.30553662  0.83996840  0.60384148     0.03100
C328        C  0.31862345  0.79433410  0.61133784    -0.13000
C329        C  0.35815061  0.77352450  0.59796429     0.00600
C330        C  0.38364954  0.79755203  0.57543162    -0.11500
C331        C  0.37051086  0.84341526  0.56697379     0.03100
C332        C  0.33182815  0.86473561  0.58194024    -0.11000
H333        H  0.29838161  0.77508167  0.62820924     0.08700
H334        H  0.41424619  0.78098273  0.56505967     0.06200
H335        H  0.32286200  0.90087616  0.57736671     0.06100
C336        C  0.90248858  0.88584800  0.78749161     0.42500
N337        N  0.96010558  0.90099458  0.75736677     0.01300
C338        C  0.09487268  0.10047255  0.75076660    -0.06500
H339        H  0.91618806  0.13268859  0.74171276     0.06800
C340        C  0.91377922  0.02595583  0.64408433    -0.06900
Co341      Co  0.00856705  0.98957245  0.77585142     0.74200
N342        N  0.95281740  0.06857180  0.75053484    -0.26100
Co343      Co  0.00203134  0.06740583  0.71578113     0.74100
C344        C  0.88782278  0.06712819  0.65404453     0.42600
N345        N  0.96043821  0.91909076  0.66574691     0.01000
N346        N  0.94823546  0.05853273  0.68297511     0.01100
N347        N  0.09498280  0.04877988  0.78972409    -0.46900
H348        H  0.91530788  0.95242880  0.81584738     0.06800
N349        N  0.95560088  0.04097099  0.77438204     0.01400
N350        N  0.05108600  0.06752722  0.68114632     0.01100
C351        C  0.09864289  0.09557404  0.64750020     0.42700
N352        N  0.96281293  0.89039805  0.68912453    -0.25500
C353        C  0.08944375  0.92621838  0.80164199    -0.06400
N354        N  0.92540982  0.87039514  0.76231694    -0.46600
N355        N  0.07727096  0.10428434  0.67424907    -0.46800
C356        C  0.10993025  0.88038384  0.79320471     0.42500
N357        N  0.05812727  0.04236941  0.77161082     0.01300
N358        N  0.06588584  0.90077144  0.68926814    -0.25500
N359        N  0.95953156  0.93595745  0.77726423    -0.26000
N360        N  0.06244184  0.93063632  0.66642574     0.01000
H361        H  0.11922616  0.84940525  0.70077281     0.06900
H362        H  0.08787505  0.03046202  0.61660752     0.06900
N363        N  0.05673877  0.07209240  0.74860814    -0.26100
N364        N  0.95057209  0.02357423  0.66316678    -0.25700
N365        N  0.06358726  0.90505915  0.75735811     0.01300
C366        C  0.90701535  0.09583165  0.78776646     0.42700
C367        C  0.93632074  0.85241242  0.68325116    -0.06900
N368        N  0.05254910  0.03440849  0.66025700    -0.25700
H369        H  0.90670047  0.00214810  0.62538644     0.06900
N370        N  0.92974075  0.05679659  0.79755817    -0.46900
H371        H  0.93446764  0.82163252  0.69746995     0.06900
C372        C  0.12719029  0.89436931  0.65742178     0.42600
C373        C  0.92439152  0.92938925  0.79712485    -0.06400
Co374      Co  0.01303597  0.89852955  0.72332773     0.73800
N375        N  0.93483894  0.90132440  0.64302374    -0.46600
C376        C  0.11955356  0.08512152  0.77834185     0.42800
N377        N  0.09189359  0.87054978  0.76539853    -0.46600
Co378      Co  0.00643090  0.97678317  0.66336805     0.73900
C379        C  0.08181706  0.04885280  0.63781396    -0.06900
C380        C  0.92187045  0.10271130  0.75625305    -0.06500
N381        N  0.06109525  0.93815870  0.77821984    -0.26000
N382        N  0.91082397  0.08570206  0.67830701    -0.46800
H383        H  0.10430021  0.12800789  0.73504196     0.06800
C384        C  0.10627812  0.87635503  0.68567120    -0.06900
Cl385      Cl  0.00739951  0.98301626  0.71956999    -0.49900
C386        C  0.91822614  0.85921092  0.65245107     0.42600
H387        H  0.09073013  0.94518923  0.82290329     0.06800
N388        N  0.09818540  0.92805904  0.64707211    -0.46600
C389        C  0.22423243  0.87091022  0.59915269    -0.20300
C390        C  0.26254609  0.85991805  0.61812797    -0.06900
C391        C  0.25658744  0.86176704  0.65014476     0.14000
C392        C  0.21181130  0.87228280  0.66224633    -0.20400
C393        C  0.17323273  0.88250595  0.64327365    -0.06900
C394        C  0.17964902  0.88233084  0.61125380     0.14000
C395        C  0.13929858  0.89184886  0.58957260    -0.23700
H396        H  0.22880407  0.86876134  0.57466712     0.15300
H397        H  0.20729729  0.87338977  0.68676497     0.15300
C398        C  0.29674522  0.85355249  0.67219763    -0.23700
H399        H  0.15008310  0.88675040  0.56545866     0.05500
H400        H  0.12728505  0.92866176  0.59202452     0.08700
H401        H  0.10932510  0.86755488  0.59428422     0.08700
H402        H  0.33146732  0.84867813  0.66078034     0.08700
H403        H  0.28896073  0.82204275  0.68611837     0.08700
H404        H  0.30034522  0.88436859  0.68756738     0.05500
C405        C  0.90774802  0.74316289  0.60946860    -0.20300
C406        C  0.86480583  0.74901860  0.59375606    -0.06900
C407        C  0.84174854  0.79309451  0.59524127     0.14000
C408        C  0.86039652  0.82866887  0.61421800    -0.20400
C409        C  0.90168907  0.82153366  0.63145570    -0.06900
C410        C  0.92685288  0.77886643  0.62788927     0.14000
C411        C  0.97475967  0.77101828  0.64236307    -0.23700
H412        H  0.92607405  0.70986559  0.60783516     0.15300
H413        H  0.84226068  0.86204165  0.61596123     0.15300
C414        C  0.79870450  0.80351633  0.57602986    -0.23700
H415        H  0.99140348  0.73806808  0.63412512     0.05500
H416        H  0.97132351  0.76797160  0.66737270     0.08700
H417        H  0.99908932  0.80038775  0.63660984     0.08700
H418        H  0.76805965  0.78174081  0.58307760     0.08700
H419        H  0.80686531  0.79654814  0.55169951     0.08700
H420        H  0.78781281  0.84077091  0.57818935     0.05500
C421        C  0.37506293  0.64301979  0.60890327    -0.20300
C422        C  0.39308700  0.64224040  0.63869600    -0.06900
C423        C  0.40298940  0.68470164  0.65397783     0.14000
C424        C  0.39290637  0.72717051  0.63948772    -0.20400
C425        C  0.37385373  0.72801145  0.60997807    -0.06900
C426        C  0.36488911  0.68559937  0.59440402     0.14000
C427        C  0.34375559  0.68535334  0.56290200    -0.23700
H428        H  0.36880474  0.61017500  0.59702897     0.15300
H429        H  0.39942178  0.76001169  0.65131436     0.15300
C430        C  0.42546043  0.68528801  0.68510617    -0.23700
H431        H  0.33841880  0.64911139  0.55418287     0.05500
H432        H  0.36779393  0.70401937  0.54697762     0.08700
H433        H  0.30875007  0.70315367  0.56324081     0.08700
H434        H  0.46012205  0.66685734  0.68434506     0.08700
H435        H  0.40178308  0.66750467  0.70159552     0.08700
H436        H  0.43185316  0.72159702  0.69340388     0.05500
C437        C  0.65373985  0.64054898  0.60035512    -0.20300
C438        C  0.65505497  0.59841665  0.61658710    -0.06900
C439        C  0.69533268  0.56900290  0.61389469     0.14000
C440        C  0.73534047  0.58513542  0.59810165    -0.20400
C441        C  0.73585139  0.62935150  0.58428335    -0.06900
C442        C  0.69346088  0.65605554  0.58375051     0.14000
C443        C  0.68883195  0.70065955  0.56574199    -0.23700
H444        H  0.62214078  0.66211038  0.60133390     0.15300
H445        H  0.76725181  0.56400045  0.59786430     0.15300
C446        C  0.69662284  0.52053639  0.62760195    -0.23700
H447        H  0.65845557  0.69735165  0.54972929     0.05500
H448        H  0.72079094  0.70852176  0.55193243     0.08700
H449        H  0.68218037  0.73052206  0.58143227     0.08700
H450        H  0.66539461  0.49992155  0.61972895     0.08700
H451        H  0.69667093  0.52259788  0.65280589     0.08700
H452        H  0.72907215  0.50113186  0.62075115     0.05500
C453        C  0.68441123  0.29372385  0.60459518    -0.20300
C454        C  0.65269753  0.25557623  0.60363663    -0.06900
C455        C  0.60776928  0.25946475  0.61771648     0.14000
C456        C  0.59507366  0.30195695  0.63139803    -0.20400
C457        C  0.62658098  0.34004044  0.63217594    -0.06900
C458        C  0.67184742  0.33604370  0.61882257     0.14000
C459        C  0.70617152  0.37663397  0.61884941    -0.23700
H460        H  0.71920940  0.29017571  0.59430368     0.15300
H461        H  0.56031280  0.30548187  0.64177291     0.15300
C462        C  0.57387830  0.21852220  0.61955679    -0.23700
H463        H  0.73980397  0.36766525  0.60700481     0.05500
H464        H  0.71490915  0.38672178  0.64264292     0.08700
H465        H  0.69003942  0.40704378  0.60705763     0.08700
H466        H  0.59162518  0.18840587  0.63069843     0.08700
H467        H  0.56191760  0.20809988  0.59645480     0.08700
H468        H  0.54171150  0.22727187  0.63304065     0.05500
C469        C  0.80503595  0.11744276  0.59477843    -0.20300
C470        C  0.76333862  0.12246342  0.61175713    -0.06900
C471        C  0.76264510  0.10975190  0.64282037     0.14000
C472        C  0.80425913  0.09262867  0.65628042    -0.20400
C473        C  0.84592813  0.08738546  0.63922754    -0.06900
C474        C  0.84652506  0.10013221  0.60813994     0.14000
C475        C  0.89116466  0.09740384  0.58928329    -0.23700
H476        H  0.80525305  0.12795974  0.57105732     0.15300
H477        H  0.80409171  0.08244119  0.68005851     0.15300
C478        C  0.71784031  0.11300634  0.66146805    -0.23700
H479        H  0.88577386  0.11187490  0.56609304     0.05500
H480        H  0.90242565  0.06044694  0.58658984     0.08700
H481        H  0.91993322  0.11789313  0.60045023     0.08700
H482        H  0.68934452  0.09185736  0.65053056     0.08700
H483        H  0.70613274  0.14998301  0.66330866     0.08700
H484        H  0.72317654  0.09959385  0.68492848     0.05500
C485        C  0.12515693  0.12990501  0.59773210    -0.20300
C486        C  0.12254923  0.13320259  0.62968957    -0.06900
C487        C  0.14037977  0.17424130  0.64421103     0.14000
C488        C  0.15710938  0.21135141  0.62650980    -0.20400
C489        C  0.15844161  0.20879196  0.59466884    -0.06900
C490        C  0.14329366  0.16708144  0.58003850     0.14000
C491        C  0.14760867  0.16097216  0.54606719    -0.23700
H492        H  0.11232443  0.09851442  0.58644222     0.15300
H493        H  0.16919581  0.24315320  0.63774475     0.15300
C494        C  0.14289246  0.17971079  0.67840982    -0.23700
H495        H  0.13705729  0.12511387  0.53874157     0.05500
H496        H  0.18499781  0.16683503  0.53898765     0.08700
H497        H  0.12426293  0.18604254  0.53407561     0.08700
H498        H  0.16134403  0.14915230  0.68853386     0.08700
H499        H  0.10671672  0.18330029  0.68808332     0.08700
H500        H  0.16295239  0.21164461  0.68527010     0.05500
C501        C  0.27919660  0.37756846  0.60436751    -0.20300
C502        C  0.28222866  0.33258754  0.59147094    -0.06900
C503        C  0.32593705  0.30798056  0.59339300     0.14000
C504        C  0.36370571  0.32744160  0.61030669    -0.20400
C505        C  0.35916572  0.37095174  0.62484149    -0.06900
C506        C  0.31711389  0.39727345  0.62070782     0.14000
C507        C  0.31192052  0.44642011  0.63313139    -0.23700
H508        H  0.24624216  0.39690093  0.60259588     0.15300
H509        H  0.39657026  0.30811693  0.61280295     0.15300
C510        C  0.33382900  0.26216263  0.57689342    -0.23700
H511        H  0.27868557  0.46318690  0.62507914     0.05500
H512        H  0.34218554  0.46846011  0.62548053     0.08700
H513        H  0.31050973  0.44607379  0.65832922     0.08700
H514        H  0.32467820  0.26614452  0.55245540     0.08700
H515        H  0.31222685  0.23367784  0.58690243     0.08700
H516        H  0.37149798  0.25093005  0.57828978     0.05500
C517        C  0.28708184  0.64673026  0.80627668    -0.20300
C518        C  0.28372797  0.63881619  0.83764111    -0.06900
C519        C  0.32055176  0.61417105  0.85249865     0.14000
C520        C  0.35900829  0.59679987  0.83525585    -0.20400
C521        C  0.36117281  0.60318811  0.80352734    -0.06900
C522        C  0.32495217  0.62938706  0.78906027     0.14000
C523        C  0.32580758  0.63992435  0.75542989    -0.23700
H524        H  0.25915233  0.66597937  0.79494188     0.15300
H525        H  0.38662930  0.57694440  0.84648274     0.15300
C526        C  0.31987267  0.60696142  0.88646494    -0.23700
H527        H  0.29742006  0.66486805  0.74884808     0.05500
H528        H  0.31983963  0.60739515  0.74206960     0.08700
H529        H  0.36039402  0.65598373  0.74926897     0.08700
H530        H  0.28893956  0.58511927  0.89305270     0.08700
H531        H  0.31772755  0.64141259  0.89823126     0.08700
H532        H  0.35241727  0.58890164  0.89448487     0.05500
C533        C  0.16616563  0.80774562  0.85823036    -0.20300
C534        C  0.16563259  0.76312264  0.84472729    -0.06900
C535        C  0.14717788  0.75769430  0.81507657     0.14000
C536        C  0.13077480  0.79687139  0.79938380    -0.20400
C537        C  0.13051289  0.84205182  0.81248032    -0.06900
C538        C  0.14834354  0.84734555  0.84265826     0.14000
C539        C  0.14898165  0.89384939  0.85885421    -0.23700
H540        H  0.18039372  0.81150651  0.88104667     0.15300
H541        H  0.11737230  0.79148067  0.77652176     0.15300
C542        C  0.14427841  0.71023760  0.79977525    -0.23700
H543        H  0.16769465  0.89177389  0.88107742     0.05500
H544        H  0.11207404  0.90493749  0.86377104     0.08700
H545        H  0.16766081  0.92038774  0.84480334     0.08700
H546        H  0.12275152  0.68594741  0.81383200     0.08700
H547        H  0.18030744  0.69555253  0.79671539     0.08700
H548        H  0.12751230  0.71217055  0.77692172     0.05500
C549        C  0.34427737  0.28074175  0.81384265    -0.20300
C550        C  0.37700570  0.24483346  0.81998523    -0.06900
C551        C  0.42509870  0.25067880  0.81136268     0.14000
C552        C  0.43902239  0.29236506  0.79721251    -0.20400
C553        C  0.40610529  0.32758725  0.79058363    -0.06900
C554        C  0.35810815  0.32181273  0.79883542     0.14000
C555        C  0.32167732  0.35909347  0.79247567    -0.23700
H556        H  0.30741726  0.27614391  0.82032219     0.15300
H557        H  0.47586940  0.29721792  0.79074411     0.15300
C558        C  0.46161070  0.21261817  0.81551236    -0.23700
H559        H  0.28613543  0.34931042  0.80142842     0.05500
H560        H  0.31821403  0.36425029  0.76753875     0.08700
H561        H  0.33257731  0.39259065  0.80342530     0.08700
H562        H  0.44883366  0.17942622  0.80502215     0.08700
H563        H  0.46897471  0.20720095  0.84001417     0.08700
H564        H  0.49594674  0.22185905  0.80459953     0.05500
C565        C  0.20546015  0.09948358  0.77031505    -0.20300
C566        C  0.16641205  0.09925230  0.79010633    -0.06900
C567        C  0.17329963  0.10836404  0.82146121     0.14000
C568        C  0.21916473  0.11754364  0.83227985    -0.20400
C569        C  0.25826762  0.11774517  0.81259893    -0.06900
C570        C  0.25154261  0.10830399  0.78125083     0.14000
C571        C  0.29296379  0.10607843  0.75958482    -0.23700
H572        H  0.20001832  0.09153466  0.74639202     0.15300
H573        H  0.22447599  0.12590330  0.85617593     0.15300
C574        C  0.13216841  0.11015424  0.84340661    -0.23700
H575        H  0.28151094  0.09598787  0.73624832     0.05500
H576        H  0.31883550  0.07959014  0.76765575     0.08700
H577        H  0.31080681  0.14067388  0.75809425     0.08700
H578        H  0.11501854  0.07520948  0.84502254     0.08700
H579        H  0.10578020  0.13628516  0.83551977     0.08700
H580        H  0.14377398  0.12042897  0.86668251     0.05500
C581        C  0.84909407  0.17037379  0.85041235    -0.20300
C582        C  0.86474195  0.21538639  0.84199537    -0.06900
C583        C  0.89479721  0.22022561  0.81650054     0.14000
C584        C  0.90896272  0.18046244  0.80032187    -0.20400
C585        C  0.89276498  0.13541224  0.80799734    -0.06900
C586        C  0.86299830  0.13016992  0.83371260     0.14000
C587        C  0.84455126  0.08268314  0.84278886    -0.23700
H588        H  0.82499295  0.16686919  0.86951132     0.15300
H589        H  0.93276271  0.18504271  0.78122541     0.15300
C590        C  0.91081020  0.26764661  0.80543014    -0.23700
H591        H  0.82066021  0.08492872  0.86285552     0.05500
H592        H  0.87466586  0.05946021  0.84876215     0.08700
H593        H  0.82427748  0.06686658  0.82362084     0.08700
H594        H  0.93313872  0.28436641  0.82305048     0.08700
H595        H  0.87960775  0.29008784  0.80052875     0.08700
H596        H  0.93232914  0.26516402  0.78430263     0.05500
C597        C  0.74560463  0.33153680  0.80022902    -0.20300
C598        C  0.74672141  0.34020690  0.83173200    -0.06900
C599        C  0.70750715  0.36295541  0.84542792     0.14000
C600        C  0.66982667  0.37880560  0.82697181    -0.20400
C601        C  0.66957341  0.37120672  0.79527630    -0.06900
C602        C  0.70696726  0.34482754  0.78215150     0.14000
C603        C  0.70667746  0.32788812  0.74956056    -0.23700
H604        H  0.77481804  0.31291321  0.78962192     0.15300
H605        H  0.64089039  0.39807261  0.83733250     0.15300
C606        C  0.70442111  0.36934745  0.87944028    -0.23700
H607        H  0.71392923  0.28964039  0.74895930     0.05500
H608        H  0.73479635  0.34626567  0.73646255     0.08700
H609        H  0.67192910  0.33259364  0.73820996     0.08700
H610        H  0.73296597  0.39305675  0.88760899     0.08700
H611        H  0.70769235  0.33482639  0.89083121     0.08700
H612        H  0.66998007  0.38499861  0.88633788     0.05500
C613        C  0.62138689  0.70273784  0.83312776    -0.20300
C614        C  0.63103292  0.74062108  0.81390988    -0.06900
C615        C  0.62852562  0.73443036  0.78197441     0.14000
C616        C  0.62007727  0.68963306  0.77005325    -0.20400
C617        C  0.61164458  0.65142936  0.78924178    -0.06900
C618        C  0.61121813  0.65820014  0.82122807     0.14000
C619        C  0.60224960  0.61845533  0.84306321    -0.23700
H620        H  0.62371354  0.70765997  0.85758038     0.15300
H621        H  0.61882180  0.68483177  0.74556851     0.15300
C622        C  0.63370441  0.77444185  0.75991252    -0.23700
H623        H  0.60662205  0.62971742  0.86714933     0.05500
H624        H  0.62771146  0.58958127  0.83864010     0.08700
H625        H  0.56533512  0.60535197  0.84047312     0.08700
H626        H  0.66595979  0.76925968  0.74578409     0.08700
H627        H  0.63602747  0.80895415  0.77148052     0.08700
H628        H  0.60213941  0.77553348  0.74476846     0.05500
C629        C  0.80646528  0.83621291  0.83791260    -0.20300
C630        C  0.76585109  0.85000482  0.82190164    -0.06900
C631        C  0.77044815  0.87372420  0.79387970     0.14000
C632        C  0.81583262  0.88301298  0.78239066    -0.20400
C633        C  0.85637432  0.86925212  0.79836331    -0.06900
C634        C  0.85192574  0.84590153  0.82648201     0.14000
C635        C  0.89511348  0.83105082  0.84418428    -0.23700
H636        H  0.80250563  0.81742495  0.85919273     0.15300
H637        H  0.81979084  0.90209109  0.76120940     0.15300
C638        C  0.72751248  0.88979252  0.77636791    -0.23700
H639        H  0.88528964  0.81258242  0.86550653     0.05500
H640        H  0.91669689  0.86228879  0.85038413     0.08700
H641        H  0.91692655  0.80694338  0.83008851     0.08700
H642        H  0.70573974  0.91336525  0.79086415     0.08700
H643        H  0.70586409  0.85909550  0.76935184     0.08700
H644        H  0.73761146  0.90922607  0.75546736     0.05500
C645        C  0.39669116  0.04737265  0.92967126    -0.20300
C646        C  0.44621058  0.05290233  0.93109576    -0.06900
C647        C  0.46793845  0.08669389  0.91213501     0.14000
C648        C  0.44047387  0.11092944  0.89080058    -0.20400
C649        C  0.39076458  0.10597965  0.88950170    -0.06900
C650        C  0.36849671  0.07568827  0.91077465     0.14000
C651        C  0.31547867  0.07364494  0.91537419    -0.23700
H652        H  0.37959050  0.02080988  0.94330910     0.15300
H653        H  0.45850904  0.13392726  0.87496466     0.15300
C654        C  0.52011375  0.09816970  0.91369907    -0.23700
H655        H  0.30734876  0.07933771  0.93978988     0.05500
H656        H  0.30172319  0.03871855  0.90837165     0.08700
H657        H  0.29616297  0.10143343  0.90301972     0.08700
H658        H  0.53758033  0.08782203  0.89204946     0.08700
H659        H  0.53812392  0.08073333  0.93293234     0.08700
H660        H  0.52477471  0.13649643  0.91712954     0.05500
C661        C  0.56928833  0.88166767  0.93203401    -0.20300
C662        C  0.56973921  0.93065287  0.92925615    -0.06900
C663        C  0.59963677  0.95146259  0.90714149     0.14000
C664        C  0.62427909  0.92295230  0.88659099    -0.20400
C665        C  0.62364370  0.87392392  0.88905665    -0.06900
C666        C  0.59757162  0.85320213  0.91321094     0.14000
C667        C  0.60016100  0.80179902  0.92081519    -0.23700
H668        H  0.54745355  0.86554133  0.94943060     0.15300
H669        H  0.64469028  0.93942406  0.86863255     0.15300
C670        C  0.60779120  0.00356195  0.90511071    -0.23700
H671        H  0.61021826  0.79780316  0.94512820     0.05500
H672        H  0.62719899  0.78272906  0.90735776     0.08700
H673        H  0.56492234  0.78518045  0.91711467     0.08700
H674        H  0.59271109  0.02276805  0.92472629     0.08700
H675        H  0.59231069  0.01709349  0.88363465     0.08700
H676        H  0.64653387  0.01094772  0.90523727     0.05500
C677        C  0.12362306  0.41432838  0.49176927    -0.20300
C678        C  0.07411101  0.41307022  0.49533993    -0.06900
C679        C  0.05446442  0.37836976  0.51465882     0.14000
C680        C  0.08495771  0.34905623  0.53140866    -0.20400
C681        C  0.13462012  0.34944392  0.52695402    -0.06900
C682        C  0.15322501  0.38041158  0.50472584     0.14000
C683        C  0.20306489  0.37707805  0.49234743    -0.23700
H684        H  0.13964565  0.44135807  0.47804802     0.15300
H685        H  0.06931904  0.32556393  0.54793266     0.15300
C686        C  0.00176240  0.37026275  0.51774815    -0.23700
H687        H  0.20151130  0.37434283  0.46713916     0.05500
H688        H  0.22212466  0.34543448  0.50015563     0.08700
H689        H  0.22358073  0.40897071  0.49863841     0.08700
H690        H  0.98038801  0.39170107  0.50191286     0.08700
H691        H  0.99049160  0.37800418  0.54145382     0.08700
H692        H  0.99356171  0.33298848  0.51248568     0.05500
C693        C  0.93717801  0.60233724  0.53707185    -0.20300
C694        C  0.88945613  0.60628433  0.52785930    -0.06900
C695        C  0.87370501  0.57848808  0.50292275     0.14000
C696        C  0.90420682  0.54478912  0.49025791    -0.20400
C697        C  0.95230174  0.54222896  0.49862040    -0.06900
C698        C  0.96906725  0.57211621  0.52214781     0.14000
C699        C  0.02083147  0.57395779  0.53094632    -0.23700
H700        H  0.94985281  0.62312294  0.55611159     0.15300
H701        H  0.89102067  0.52239650  0.47213435     0.15300
C702        C  0.82651340  0.58549980  0.48737519    -0.23700
H703        H  0.02806671  0.60222408  0.54780043     0.05500
H704        H  0.04288854  0.58097567  0.51050515     0.08700
H705        H  0.03190050  0.54053629  0.54149516     0.08700
H706        H  0.80740178  0.61696275  0.49558679     0.08700
H707        H  0.80383569  0.55401140  0.49059372     0.08700
H708        H  0.83240992  0.59071612  0.46259659     0.05500
C709        C  0.05430731  0.59192449  0.91886144    -0.20300
C710        C  0.07311724  0.55194797  0.93270668    -0.06900
C711        C  0.11984589  0.53832293  0.92520972     0.14000
C712        C  0.14933038  0.56979983  0.90962502    -0.20400
C713        C  0.13151853  0.61120475  0.89631704    -0.06900
C714        C  0.08160866  0.61920077  0.89870644     0.14000
C715        C  0.05443790  0.65178267  0.87815821    -0.23700
H716        H  0.01697288  0.59983742  0.92200325     0.15300
H717        H  0.18647609  0.56081809  0.90772620     0.15300
C718        C  0.13903938  0.49004348  0.93179611    -0.23700
H719        H  0.02316544  0.63305299  0.86852878     0.05500
H720        H  0.07544973  0.66325098  0.85824204     0.08700
H721        H  0.04163436  0.68254290  0.89132456     0.08700
H722        H  0.11385534  0.46796060  0.94485511     0.08700
H723        H  0.14652612  0.47188098  0.90991973     0.08700
H724        H  0.17283896  0.49266701  0.94471759     0.05500
C725        C  0.96743159  0.40218899  0.91157861    -0.20300
C726        C  0.94669155  0.42998765  0.93438801    -0.06900
C727        C  0.89673378  0.42773792  0.93823002     0.14000
C728        C  0.87001486  0.39494504  0.92125721    -0.20400
C729        C  0.89092009  0.36656459  0.89867707    -0.06900
C730        C  0.94030118  0.37204266  0.89303757     0.14000
C731        C  0.96454344  0.34941046  0.86622405    -0.23700
H732        H  0.00540269  0.40476878  0.90783581     0.15300
H733        H  0.83204663  0.39259335  0.92507785     0.15300
C734        C  0.86992735  0.46092704  0.95862220    -0.23700
H735        H  0.00137641  0.36266898  0.86324689     0.05500
H736        H  0.94472750  0.35777726  0.84509584     0.08700
H737        H  0.96726310  0.31108921  0.86938607     0.08700
H738        H  0.89292917  0.48847879  0.96861703     0.08700
H739        H  0.85253273  0.44101537  0.97723222     0.08700
H740        H  0.84216895  0.47908668  0.94516854     0.05500
C741        C  0.62319004  0.05402238  0.49691680    -0.20300
C742        C  0.57376044  0.05304472  0.50089268    -0.06900
C743        C  0.55249223  0.08537544  0.52118736     0.14000
C744        C  0.58145726  0.11501896  0.53875379    -0.20400
C745        C  0.63112603  0.11494759  0.53563012    -0.06900
C746        C  0.65186518  0.08594482  0.51297338     0.14000
C747        C  0.70352533  0.08890165  0.50420169    -0.23700
H748        H  0.63947933  0.03031765  0.48065665     0.15300
H749        H  0.56510028  0.13751182  0.55566914     0.15300
C750        C  0.49927379  0.08966154  0.52395744    -0.23700
H751        H  0.70637002  0.09496492  0.47929041     0.05500
H752        H  0.72153849  0.05546800  0.50981167     0.08700
H753        H  0.72242698  0.11825795  0.51556236     0.08700
H754        H  0.48367681  0.05735477  0.53370451     0.08700
H755        H  0.48357387  0.09616260  0.50117213     0.08700
H756        H  0.48905596  0.11923107  0.53910188     0.05500
C757        C  0.44940963  0.87048981  0.54852672    -0.20300
C758        C  0.39992621  0.86999541  0.54455847    -0.06900
C759        C  0.38035835  0.89345578  0.51905744     0.14000
C760        C  0.41044039  0.91917609  0.49966640    -0.20400
C761        C  0.45987739  0.92021013  0.50398261    -0.06900
C762        C  0.47958863  0.89396465  0.52825954     0.14000
C763        C  0.53235911  0.88823752  0.53291913    -0.23700
H764        H  0.46492051  0.85184532  0.56754038     0.15300
H765        H  0.39508766  0.93915779  0.48121835     0.15300
C766        C  0.32831562  0.89006373  0.51119344    -0.23700
H767        H  0.54112339  0.85031518  0.53356256     0.05500
H768        H  0.54300028  0.90455572  0.55488515     0.08700
H769        H  0.55386841  0.90371636  0.51437756     0.08700
H770        H  0.30642709  0.90878274  0.52822920     0.08700
H771        H  0.31733931  0.85268616  0.51002553     0.08700
H772        H  0.32062388  0.90611219  0.48872478     0.05500
C773        C  0.43557183  0.12358335  0.03048104    -0.20300
C774        C  0.38637443  0.11461745  0.03278633    -0.06900
C775        C  0.36775602  0.07445483  0.01758597     0.14000
C776        C  0.39888761  0.04302212  0.00321289    -0.20400
C777        C  0.44724468  0.05330622  0.99982774    -0.06900
C778        C  0.46579704  0.09424641  0.01351674     0.14000
C779        C  0.51747244  0.10704696  0.01023451    -0.23700
H780        H  0.45081757  0.15348798  0.04222654     0.15300
H781        H  0.38486859  0.01084315  0.99356817     0.15300
C782        C  0.31533325  0.06457110  0.01436604    -0.23700
H783        H  0.52602678  0.14060009  0.02195324     0.05500
H784        H  0.52636666  0.11102524  0.98576772     0.08700
H785        H  0.54001775  0.07926149  0.02025908     0.08700
H786        H  0.29297802  0.09519823  0.02016567     0.08700
H787        H  0.30533970  0.03418877  0.02874231     0.08700
H788        H  0.30701127  0.05572092  0.99034737     0.05500
C789        C  0.34523818  0.35043570  0.10235010    -0.20300
C790        C  0.39296135  0.35330020  0.11109627    -0.06900
C791        C  0.42469671  0.31740817  0.10229190     0.14000
C792        C  0.40696043  0.27732351  0.08764612    -0.20400
C793        C  0.35832878  0.27223073  0.08124613    -0.06900
C794        C  0.32765068  0.31069873  0.08693078     0.14000
C795        C  0.27639510  0.31100864  0.07710190    -0.23700
H796        H  0.32123925  0.37861269  0.10841086     0.15300
H797        H  0.43086478  0.24842223  0.08316127     0.15300
C798        C  0.47717140  0.32042726  0.10916800    -0.23700
H799        H  0.26968077  0.34242560  0.06290889     0.05500
H800        H  0.25304317  0.31240187  0.09745239     0.08700
H801        H  0.26676333  0.27992062  0.06316074     0.08700
H802        H  0.48339908  0.32020866  0.13409639     0.08700
H803        H  0.49212710  0.35308468  0.09933359     0.08700
H804        H  0.49691046  0.29034154  0.09929679     0.05500
C805        C  0.08853595  0.35852265  0.39316316    -0.20300
C806        C  0.13589747  0.37160845  0.38673453    -0.06900
C807        C  0.15496504  0.41148700  0.40213413     0.14000
C808        C  0.12489976  0.43964304  0.41981057    -0.20400
C809        C  0.07893839  0.42491403  0.42723314    -0.06900
C810        C  0.06085576  0.38332558  0.41429198     0.14000
C811        C  0.01216171  0.36538984  0.42251815    -0.23700
H812        H  0.07248643  0.32895461  0.38155734     0.15300
H813        H  0.13849039  0.47199963  0.42955536     0.15300
C814        C  0.20708615  0.42390222  0.40268729    -0.23700
H815        H  0.00338421  0.33233160  0.41028275     0.05500
H816        H  0.98491253  0.39174839  0.41666064     0.08700
H817        H  0.01057248  0.35832248  0.44732887     0.08700
H818        H  0.21359093  0.45554043  0.38863227     0.08700
H819        H  0.22997388  0.39465625  0.39502190     0.08700
H820        H  0.21829469  0.43178871  0.42641394     0.05500
C821        C  0.30231669  0.37746994  0.32661338    -0.20300
C822        C  0.26545995  0.36023280  0.30830208    -0.06900
C823        C  0.27104492  0.35873955  0.27635327     0.14000
C824        C  0.31454205  0.37242457  0.26363419    -0.20400
C825        C  0.35212507  0.38826378  0.28201869    -0.06900
C826        C  0.34561062  0.39166617  0.31396167     0.14000
C827        C  0.38441485  0.40824125  0.33515204    -0.23700
H828        H  0.29769195  0.37824831  0.35112630     0.15300
H829        H  0.31907402  0.37098464  0.23915071     0.15300
C830        C  0.23095171  0.34409199  0.25557213    -0.23700
H831        H  0.37362879  0.40577481  0.35942469     0.05500
H832        H  0.39296179  0.44556004  0.33060998     0.08700
H833        H  0.41659362  0.38634615  0.33204188     0.08700
H834        H  0.19942446  0.36634419  0.26004225     0.08700
H835        H  0.22139067  0.30683879  0.25916588     0.08700
H836        H  0.24071666  0.34803402  0.23121160     0.05500
C837        C  0.63862968  0.06500320  0.39673338    -0.20300
C838        C  0.63525770  0.11374327  0.40126917    -0.06900
C839        C  0.60141752  0.13070826  0.42254399     0.14000
C840        C  0.57040254  0.09894229  0.43691586    -0.20400
C841        C  0.57450821  0.05023872  0.43261616    -0.06900
C842        C  0.60982350  0.03316240  0.41258465     0.14000
C843        C  0.61885839  0.98136771  0.40864748    -0.23700
H844        H  0.66403781  0.05145863  0.38048518     0.15300
H845        H  0.54404567  0.11223636  0.45270157     0.15300
C846        C  0.59853717  0.18141901  0.43210176    -0.23700
H847        H  0.65046171  0.97461897  0.39417376     0.05500
H848        H  0.58818331  0.96403537  0.39747360     0.08700
H849        H  0.62535473  0.96507983  0.43118415     0.08700
H850        H  0.56388509  0.19619569  0.42493135     0.08700
H851        H  0.62756808  0.20319052  0.42266761     0.08700
H852        H  0.60138010  0.18391015  0.45729166     0.05500
C853        C  0.60930237  0.27465323  0.28387763    -0.20300
C854        C  0.62353677  0.32126243  0.28959932    -0.06900
C855        C  0.65427646  0.33041104  0.31448558     0.14000
C856        C  0.66990821  0.29299038  0.33272963    -0.20400
C857        C  0.65537661  0.24671973  0.32693590    -0.06900
C858        C  0.62491068  0.23740633  0.30212385     0.14000
C859        C  0.60996518  0.18799927  0.29430168    -0.23700
H860        H  0.58552263  0.26705149  0.26512338     0.15300
H861        H  0.69399598  0.29974306  0.35151046     0.15300
C862        C  0.67202923  0.37918392  0.32139044    -0.23700
H863        H  0.58726080  0.18676279  0.27362587     0.05500
H864        H  0.58940105  0.17268856  0.31339074     0.08700
H865        H  0.64185512  0.16617186  0.28995111     0.08700
H866        H  0.64194659  0.40206837  0.32800169     0.08700
H867        H  0.69006929  0.39385921  0.30105225     0.08700
H868        H  0.69784525  0.37943300  0.34052008     0.05500
C869        C  0.12243266  0.55389327  0.99993439    -0.20300
C870        C  0.07285198  0.55616598  0.00184393    -0.06900
C871        C  0.05263252  0.58849316  0.02266047     0.14000
C872        C  0.08229070  0.61461160  0.04215051    -0.20400
C873        C  0.13214871  0.61322452  0.03958646    -0.06900
C874        C  0.15201095  0.58433119  0.01653141     0.14000
C875        C  0.20352532  0.58626810  0.00735922    -0.23700
H876        H  0.13861519  0.52843319  0.98523442     0.15300
H877        H  0.06591358  0.63649374  0.05938598     0.15300
C878        C  0.99998714  0.59693605  0.02471819    -0.23700
H879        H  0.20611567  0.58988973  0.98222754     0.05500
H880        H  0.22165001  0.55345129  0.01421145     0.08700
H881        H  0.22223491  0.61703161  0.01708556     0.08700
H882        H  0.98648795  0.58442523  0.04701200     0.08700
H883        H  0.98007597  0.57959493  0.00608364     0.08700
H884        H  0.99286125  0.63507330  0.02276763     0.05500
C885        C  0.27917665  0.62588926  0.14103727    -0.20300
C886        C  0.27524357  0.62949906  0.10921814    -0.06900
C887        C  0.31601226  0.62322851  0.09097932     0.14000
C888        C  0.35936299  0.61262102  0.10496864    -0.20400
C889        C  0.36337088  0.60926950  0.13673737    -0.06900
C890        C  0.32277887  0.61603409  0.15508728     0.14000
C891        C  0.32466266  0.61161866  0.18924065    -0.23700
H892        H  0.24792586  0.63156992  0.15496999     0.15300
H893        H  0.39056446  0.60698204  0.09097363     0.15300
C894        C  0.31444562  0.62904791  0.05692080    -0.23700
H895        H  0.28893156  0.61532749  0.19966086     0.05500
H896        H  0.34753672  0.63961341  0.19895752     0.08700
H897        H  0.33879232  0.57671209  0.19561243     0.08700
H898        H  0.30031000  0.66418984  0.05110149     0.08700
H899        H  0.29161858  0.60145108  0.04675379     0.08700
H900        H  0.35025094  0.62577185  0.04654109     0.05500
C901        C  0.20824798  0.12828125  0.15496532    -0.20300
C902        C  0.17293215  0.10252618  0.13960295    -0.06900
C903        C  0.17750672  0.09524337  0.10780484     0.14000
C904        C  0.21766858  0.11299652  0.09263405    -0.20400
C905        C  0.25358552  0.13744821  0.10830592    -0.06900
C906        C  0.24888972  0.14478677  0.14004941     0.14000
C907        C  0.28679656  0.16768747  0.15937725    -0.23700
H908        H  0.20512530  0.13415061  0.17929388     0.15300
H909        H  0.22113622  0.10779183  0.06825719     0.15300
C910        C  0.14125492  0.06790527  0.08973973    -0.23700
H911        H  0.29632047  0.14403513  0.17844140     0.05500
H912        H  0.27307514  0.20106701  0.16898392     0.08700
H913        H  0.32002841  0.17493624  0.14678029     0.08700
H914        H  0.10620189  0.08545311  0.09121915     0.08700
H915        H  0.13852565  0.03162816  0.09864154     0.08700
H916        H  0.15099517  0.06549001  0.06527395     0.05500
C917        C  0.17745057  0.14112253  0.31616032    -0.20300
C918        C  0.13364062  0.13862089  0.30115971    -0.06900
C919        C  0.10457460  0.17872814  0.29915031     0.14000
C920        C  0.11997478  0.22054018  0.31258045    -0.20400
C921        C  0.16360837  0.22317387  0.32780638    -0.06900
C922        C  0.19284160  0.18308909  0.32969177     0.14000
C923        C  0.23974612  0.18325372  0.34620201    -0.23700
H924        H  0.19917486  0.10991961  0.31799423     0.15300
H925        H  0.09843675  0.25182275  0.31050900     0.15300
C926        C  0.05807525  0.17807563  0.28202241    -0.23700
H927        H  0.23912662  0.15628539  0.36436409     0.05500
H928        H  0.24789271  0.21742088  0.35715123     0.08700
H929        H  0.26868577  0.17485542  0.32992961     0.08700
H930        H  0.03222267  0.15457720  0.29339193     0.08700
H931        H  0.06403976  0.16581316  0.25830162     0.08700
H932        H  0.04181398  0.21345710  0.28099624     0.05500
C933        C  0.82875343  0.07717549  0.31431092    -0.20300
C934        C  0.87001976  0.10478377  0.31406332    -0.06900
C935        C  0.87093505  0.14722724  0.33063701     0.14000
C936        C  0.82937538  0.16236251  0.34565923    -0.20400
C937        C  0.78727968  0.13561744  0.34457912    -0.06900
C938        C  0.78736969  0.09209112  0.32899608     0.14000
C939        C  0.74318523  0.06238577  0.32598197    -0.23700
H940        H  0.82832928  0.04434165  0.30178135     0.15300
H941        H  0.82917474  0.19588269  0.35736855     0.15300
C942        C  0.91498252  0.17720259  0.33137866    -0.23700
H943        H  0.74895887  0.03148592  0.31097918     0.05500
H944        H  0.71390233  0.08334907  0.31603776     0.08700
H945        H  0.73253662  0.04894186  0.34859129     0.08700
H946        H  0.92475277  0.18775014  0.30788607     0.08700
H947        H  0.94472236  0.15709259  0.34150411     0.08700
H948        H  0.90969327  0.20947683  0.34518649     0.05500
C949        C  0.16712524  0.83131243  0.12929052    -0.20300
C950        C  0.12411463  0.82845123  0.14508831    -0.06900
C951        C  0.09524597  0.78821714  0.14217271     0.14000
C952        C  0.11077072  0.75088634  0.12394289    -0.20400
C953        C  0.15416360  0.75330460  0.10834022    -0.06900
C954        C  0.18221707  0.79450193  0.11047975     0.14000
C955        C  0.22762840  0.80112614  0.09281144    -0.23700
H956        H  0.18838719  0.86299316  0.13094438     0.15300
H957        H  0.08976951  0.71901171  0.12268628     0.15300
C958        C  0.04884071  0.78413270  0.15907240    -0.23700
H959        H  0.22506787  0.83342421  0.07888162     0.05500
H960        H  0.23511350  0.77170989  0.07698316     0.08700
H961        H  0.25788462  0.80486147  0.10886403     0.08700
H962        H  0.02408238  0.81195266  0.15149727     0.08700
H963        H  0.05522601  0.78789189  0.18392263     0.08700
H964        H  0.03142303  0.74969184  0.15498064     0.05500
C965        C  0.95389242  0.37948653  0.99810625    -0.20300
C966        C  0.95268252  0.42798202  0.00387450    -0.06900
C967        C  0.92521660  0.44463707  0.02868277     0.14000
C968        C  0.90251746  0.41265330  0.04786532    -0.20400
C969        C  0.90265562  0.36431534  0.04184160    -0.06900
C970        C  0.92815628  0.34754951  0.01616144     0.14000
C971        C  0.92686300  0.29669967  0.00667809    -0.23700
H972        H  0.97491499  0.36651061  0.97922598     0.15300
H973        H  0.88284558  0.42599750  0.06725673     0.15300
C974        C  0.91656234  0.49591462  0.03483856    -0.23700
H975        H  0.94456241  0.29115282  0.98435324     0.05500
H976        H  0.88948299  0.28469966  0.00443304     0.08700
H977        H  0.94569914  0.27468906  0.02347258     0.08700
H978        H  0.92948814  0.51868631  0.01633973     0.08700
H979        H  0.93379395  0.50632026  0.05658849     0.08700
H980        H  0.87777331  0.50227872  0.03665491     0.05500
C981        C  0.88442737  0.22568344  0.14300304    -0.20300
C982        C  0.88199769  0.22481602  0.11102963    -0.06900
C983        C  0.89457533  0.18355249  0.09512789     0.14000
C984        C  0.91005168  0.14456563  0.11165317    -0.20400
C985        C  0.91198970  0.14523130  0.14362453    -0.06900
C986        C  0.89935571  0.18637182  0.15952087     0.14000
C987        C  0.90339162  0.18956485  0.19367459    -0.23700
H988        H  0.87461484  0.25744655  0.15507198     0.15300
H989        H  0.91991169  0.11296884  0.09941387     0.15300
C990        C  0.89067930  0.17869204  0.06099343    -0.23700
H991        H  0.89380245  0.22497569  0.20224759     0.05500
H992        H  0.94049283  0.18221517  0.20074505     0.08700
H993        H  0.87912428  0.16380480  0.20445205     0.08700
H994        H  0.87579870  0.21008318  0.04978699     0.08700
H995        H  0.86699854  0.14868763  0.05535370     0.08700
H996        H  0.92636967  0.17191361  0.05122590     0.05500
C997        C  0.66981568  0.36248183  0.09324860    -0.20300
C998        C  0.66403480  0.36735508  0.12483517    -0.06900
C999        C  0.70242022  0.35791045  0.14447239     0.14000
C1000       C  0.74590849  0.34411778  0.13193468    -0.20400
C1001       C  0.75182307  0.33884212  0.10032164    -0.06900
C1002       C  0.71310636  0.34768126  0.08069047     0.14000
C1003       C  0.71650530  0.33994633  0.04678184    -0.23700
H1004       H  0.64011839  0.37007600  0.07835147     0.15300
H1005       H  0.77569696  0.33737841  0.14692962     0.15300
C1006       C  0.69829538  0.36389586  0.17850319    -0.23700
H1007       H  0.68168931  0.34509125  0.03539993     0.05500
H1008       H  0.72834591  0.30356863  0.04200279     0.08700
H1009       H  0.74183089  0.36510786  0.03652185     0.08700
H1010       H  0.67151621  0.33902803  0.18762306     0.08700
H1011       H  0.68756388  0.40037743  0.18403772     0.08700
H1012       H  0.73248152  0.35685757  0.19021880     0.05500
C1013       C  0.43176419  0.84066243  0.41829078    -0.20300
C1014       C  0.39657863  0.85986882  0.39932274    -0.06900
C1015       C  0.39449430  0.90947539  0.39640390     0.14000
C1016       C  0.42360229  0.93778529  0.41484726    -0.20400
C1017       C  0.45757925  0.91848376  0.43443316    -0.06900
C1018       C  0.46364506  0.86929418  0.43467216     0.14000
C1019       C  0.50568658  0.84694177  0.45000759    -0.23700
H1020       H  0.43519794  0.80292676  0.41974212     0.15300
H1021       H  0.42061500  0.97560159  0.41344496     0.15300
C1022       C  0.36498300  0.93336114  0.37233404    -0.23700
H1023       H  0.50723371  0.80867092  0.44538725     0.05500
H1024       H  0.50388134  0.85154060  0.47489578     0.08700
H1025       H  0.53902602  0.86294481  0.44135675     0.08700
H1026       H  0.32706885  0.93398510  0.37886756     0.08700
H1027       H  0.36959037  0.91547382  0.35002771     0.08700
H1028       H  0.37596161  0.97048537  0.36927024     0.05500
C1029       C  0.24291412  0.87769302  0.33643142    -0.20300
C1030       C  0.24231309  0.83126477  0.34693807    -0.06900
C1031       C  0.19982915  0.80479572  0.34415487     0.14000
C1032       C  0.16055542  0.82427906  0.32890903    -0.20400
C1033       C  0.16263994  0.86957942  0.31669909    -0.06900
C1034       C  0.20379325  0.89725012  0.32151975     0.14000
C1035       C  0.20708518  0.94738776  0.31077441    -0.23700
H1036       H  0.27521796  0.89819177  0.33849172     0.15300
H1037       H  0.12867981  0.80342659  0.32572075     0.15300
C1038       C  0.19457488  0.75626806  0.35709577    -0.23700
H1039       H  0.24046669  0.96456064  0.31850543     0.05500
H1040       H  0.17686604  0.96790782  0.32001148     0.08700
H1041       H  0.20669896  0.94881937  0.28555411     0.08700
H1042       H  0.22618914  0.74501053  0.37015828     0.08700
H1043       H  0.18820812  0.73079292  0.33834498     0.08700
H1044       H  0.16380159  0.75546886  0.37289001     0.05500
C1045       C  0.39476165  0.68192969  0.34651626    -0.20300
C1046       C  0.37675716  0.71999305  0.32999221    -0.06900
C1047       C  0.37835898  0.71845517  0.29784735     0.14000
C1048       C  0.39594716  0.67834392  0.28319487    -0.20400
C1049       C  0.41397235  0.63984649  0.29947366    -0.06900
C1050       C  0.41360526  0.64202757  0.33180228     0.14000
C1051       C  0.43374575  0.60360267  0.35123498    -0.23700
H1052       H  0.39386769  0.68344888  0.37117181     0.15300
H1053       H  0.39665436  0.67784288  0.25851464     0.15300
C1054       C  0.36382943  0.75912871  0.27809043    -0.23700
H1055       H  0.43308442  0.61295566  0.37580978     0.05500
H1056       H  0.47131641  0.59701901  0.34492485     0.08700
H1057       H  0.41208337  0.57136111  0.34845140     0.08700
H1058       H  0.35388963  0.79081310  0.29122585     0.08700
H1059       H  0.39398457  0.76917691  0.26316416     0.08700
H1060       H  0.33328063  0.74860341  0.26358684     0.05500
C1061       C  0.58870503  0.87031985  0.03790575    -0.20300
C1062       C  0.63725310  0.86973563  0.03040202    -0.06900
C1063       C  0.65301192  0.89794737  0.00586748     0.14000
C1064       C  0.62072835  0.92804157  0.99122017    -0.20400
C1065       C  0.57199349  0.92801730  0.99835863    -0.06900
C1066       C  0.55579186  0.89749074  0.02162177     0.14000
C1067       C  0.50397769  0.89075331  0.02919397    -0.23700
H1068       H  0.57596120  0.84836264  0.05629425     0.15300
H1069       H  0.63359185  0.95114602  0.97351483     0.15300
C1070       C  0.70283914  0.89444053  0.99350575    -0.23700
H1071       H  0.49497599  0.85286466  0.02788855     0.05500
H1072       H  0.47972523  0.90882401  0.01330672     0.08700
H1073       H  0.49702483  0.90345669  0.05269825     0.08700
H1074       H  0.71134276  0.85722855  0.98845084     0.08700
H1075       H  0.72896707  0.90888096  0.00987417     0.08700
H1076       H  0.70691391  0.91446594  0.97201619     0.05500
C1077       C  0.67785895  0.63637079  0.10079291    -0.20300
C1078       C  0.63356562  0.63621542  0.11534749    -0.06900
C1079       C  0.60347738  0.67561932  0.11226622     0.14000
C1080       C  0.62030395  0.71574525  0.09732420    -0.20400
C1081       C  0.66616031  0.71755769  0.08488849    -0.06900
C1082       C  0.69438852  0.67642607  0.08525817     0.14000
C1083       C  0.74118811  0.67407819  0.06867062    -0.23700
H1084       H  0.70018633  0.60557948  0.10237613     0.15300
H1085       H  0.59816483  0.74674225  0.09654539     0.15300
C1086       C  0.55355131  0.67582849  0.12478362    -0.23700
H1087       H  0.75655285  0.63828455  0.06946361     0.05500
H1088       H  0.76749834  0.69829680  0.07897085     0.08700
H1089       H  0.73585224  0.68342092  0.04439325     0.08700
H1090       H  0.55399101  0.67467696  0.14999048     0.08700
H1091       H  0.53352231  0.64517635  0.11578079     0.08700
H1092       H  0.53405184  0.70800379  0.11816325     0.05500
C1093       C  0.82510426  0.82875454  0.09474513    -0.20300
C1094       C  0.78039232  0.84994670  0.09837541    -0.06900
C1095       C  0.77547299  0.88699700  0.11960031     0.14000
C1096       C  0.81525935  0.90212875  0.13625100    -0.20400
C1097       C  0.86007220  0.88115048  0.13266137    -0.06900
C1098       C  0.86500672  0.84387287  0.11158604     0.14000
C1099       C  0.91143110  0.81845704  0.10777194    -0.23700
H1100       H  0.82857703  0.79969623  0.07892385     0.15300
H1101       H  0.81111019  0.93052105  0.15249804     0.15300
C1102       C  0.72795048  0.90919312  0.12607223    -0.23700
H1103       H  0.90795756  0.78806980  0.09202716     0.05500
H1104       H  0.92378722  0.80514846  0.13013507     0.08700
H1105       H  0.93852135  0.84235398  0.09809400     0.08700
H1106       H  0.70180581  0.88178806  0.13256069     0.08700
H1107       H  0.71497789  0.92825149  0.10579445     0.08700
H1108       H  0.73009912  0.93495175  0.14505916     0.05500
C1109       C  0.95577280  0.59538917  0.43466659    -0.20300
C1110       C  0.95663475  0.54668474  0.42989792    -0.06900
C1111       C  0.92562337  0.52664777  0.40806048     0.22800
C1112       C  0.89790612  0.55587336  0.38984312    -0.20400
C1113       C  0.89759771  0.60475003  0.39390564    -0.06900
C1114       C  0.92505527  0.62439413  0.41792273     0.14000
C1115       C  0.92111739  0.67491596  0.42769775    -0.23700
H1116       H  0.97807454  0.61066810  0.45223724     0.15300
H1117       H  0.87697133  0.54015662  0.37180330     0.15300
C1118       C  0.92064874  0.47429584  0.40414009    -0.23700
H1119       H  0.91287780  0.67650816  0.45242027     0.05500
H1120       H  0.89225498  0.69383369  0.41586811     0.08700
H1121       H  0.95532697  0.69324411  0.42357296     0.08700
H1122       H  0.91321827  0.45771486  0.42648390     0.08700
H1123       H  0.95347903  0.45952137  0.39420106     0.08700
H1124       H  0.89102896  0.46499789  0.38851341     0.05500
C1125       C  0.71968445  0.64557703  0.31865146    -0.20300
C1126       C  0.76044676  0.61785327  0.32206369    -0.06900
C1127       C  0.76254787  0.57335040  0.30774686     0.14000
C1128       C  0.72358981  0.55764178  0.29068254    -0.20400
C1129       C  0.68345894  0.58577894  0.28684897    -0.06900
C1130       C  0.68108046  0.63005555  0.30113169     0.14000
C1131       C  0.63753427  0.66035018  0.29859263    -0.23700
H1132       H  0.71845813  0.67983296  0.32940057     0.15300
H1133       H  0.72463383  0.52341147  0.27987192     0.15300
C1134       C  0.80632242  0.54310006  0.30915236    -0.23700
H1135       H  0.64120269  0.69323285  0.31203017     0.05500
H1136       H  0.60605911  0.64099820  0.30723936     0.08700
H1137       H  0.63157138  0.67007500  0.27445515     0.08700
H1138       H  0.81247858  0.53119609  0.33279872     0.08700
H1139       H  0.83767153  0.56311721  0.30098173     0.08700
H1140       H  0.80271346  0.51124116  0.29469932     0.05500
C1141       C  0.88929092  0.77926630  0.34146778    -0.20300
C1142       C  0.88374822  0.74113325  0.32161369    -0.06900
C1143       C  0.89069131  0.74749945  0.28995028     0.14000
C1144       C  0.90019572  0.79263338  0.27883850    -0.20400
C1145       C  0.90453931  0.83095473  0.29868711    -0.06900
C1146       C  0.90007187  0.82405794  0.33045890     0.14000
C1147       C  0.90498123  0.86402472  0.35283676    -0.23700
H1148       H  0.88391122  0.77413919  0.36568296     0.15300
H1149       H  0.90546315  0.79785613  0.25462780     0.15300
C1150       C  0.89015528  0.70667727  0.26799722    -0.23700
H1151       H  0.89747678  0.85269376  0.37652877     0.05500
H1152       H  0.87959422  0.89229119  0.34697745     0.08700
H1153       H  0.94175308  0.87804753  0.35242242     0.08700
H1154       H  0.85437693  0.69061005  0.26665730     0.08700
H1155       H  0.91612033  0.67989151  0.27551179     0.08700
H1156       H  0.90003690  0.71771285  0.24460685     0.05500
loop_ 
_geom_bond_atom_site_label_1 
_geom_bond_atom_site_label_2 
_geom_bond_distance 
_geom_bond_site_symmetry_2 
_ccdc_geom_bond_type 
C1            C2   1.394       .  A
C1            C6   1.401       .  A
C1         C1126   1.477       .  S
C2            C3   1.395       .  A
C2            H7   1.084       .  S
C3            C4   1.406       .  A
C3         C1142   1.477       .  S
C4            C5   1.411       .  A
C4            H8   1.083       .  S
C5            C6   1.409       .  A
C5         C1113   1.494       .  S
C6            H9   1.083       .  S
C10          C11   1.402       .  A
C10          C15   1.407       .  A
C10        C1094   1.490       .  S
C11          C12   1.404       .  A
C11          H16   1.083       .  S
C12          C13   1.410       .  A
C12        C1081   1.494       .  S
C13          C14   1.412       .  A
C13          H17   1.084       .  S
C14          C15   1.409       .  A
C14        C1062   1.501       .  S
C15          H18   1.080       .  S
C19          C20   1.406       .  A
C19          C24   1.406       .  A
C19        C1046   1.488       .  S
C20          C21   1.411       .  A
C20          H25   1.083       .  S
C21          C22   1.406       .  A
C21        C1014   1.499       .  S
C22          C23   1.404       .  A
C22          H26   1.081       .  S
C23          C24   1.404       .  A
C23        C1030   1.491       .  S
C24          H27   1.084       .  S
C28          C29   1.396       .  A
C28          C33   1.406       .  A
C28         C982   1.477       .  S
C29          C30   1.397       .  A
C29          H34   1.085       .  S
C30          C31   1.403       .  A
C30        C1001   1.481       .  S
C31          C32   1.411       .  A
C31          H35   1.082       .  S
C32          C33   1.408       .  A
C32         C969   1.493       .  S
C33          H36   1.081       .  S
C37          C74   1.468       .  S
C37        C1033   1.479       .  S
C37          N55   1.345       .  A
N38          N55   1.320       .  A
N38          N60   1.318       .  A
N38         Co75   2.065       .  S
C39          C77   1.458       .  S
C39          H84   1.082       .  S
C39          N64   1.334       .  A
H40          C81   1.081       .  S
C41          C45   1.471       .  S
C41          H70   1.080       .  S
C41          N65   1.347       .  A
Co42         N60   2.097       .  S
Co42         N50   2.053   1_455  S
Co42         N82   2.047   1_565  S
Co42         N58   2.097   1_465  S
Co42        Cl86   2.469       .  S
N43          C81   1.347       .  A
N43          N50   1.323       .  A
N43         Co44   2.118       .  S
Co44         N47   2.070       .  S
Co44         N64   2.068   1_565  S
Co44         N51   2.117   1_565  S
Co44        Cl86   2.429   1_655  S
C45        C1097   1.490       .  S
C45          N83   1.349       .  A
N46          N53   1.323       .  A
N46          N76   1.319       .  A
N46         Co79   2.061       .  S
N47          N65   1.317       .  A
N47          N83   1.321       .  A
N48          C77   1.356       .  A
N48          N58   1.329       .  A
H49          C74   1.082       .  S
N50          N71   1.318       .  A
N51          N69   1.321       .  A
N51          N56   1.329       .  A
C52          C80   1.448       .  S
C52         C985   1.475       .  S
C52          N56   1.357       .  A
N53          C68   1.344       .  A
N53         Co75   2.103       .  S
C54          C57   1.445       .  S
C54          H88   1.081       .  S
C54          N82   1.330       .  A
C57         C918   1.461       .  S
C57          N78   1.353       .  A
N58          N64   1.316       .  A
N59          C85   1.333       .  A
N59          N61   1.316       .  A
N59         Co75   2.057   1_545  S
N60          C74   1.347       .  A
N61          N89   1.328       .  A
N61         Co79   2.098   1_545  S
H62          C85   1.082       .  S
H63          C80   1.082       .  S
N65         Co79   2.096   1_655  S
N66          N78   1.327       .  A
N66          N82   1.321       .  A
N66         Co75   2.108   1_545  S
C67          C81   1.468       .  S
C67        C1145   1.472       .  S
C67          N71   1.341       .  A
C68          C87   1.461       .  S
C68          H72   1.081       .  S
N69          C80   1.333       .  A
N69         Co79   2.056   1_645  S
C73          C85   1.456       .  S
C73         C902   1.487       .  S
C73          N89   1.356       .  A
Co75        Cl86   2.432       .  S
N76          C87   1.342       .  A
C77         C934   1.481       .  S
Co79        Cl86   2.463       .  S
C87         C950   1.463       .  S
C90          C91   1.393       .  A
C90          C95   1.407       .  A
C90         C886   1.480       .  S
C91          C92   1.393       .  A
C91          H96   1.085       .  S
C92          C93   1.404       .  A
C92         C953   1.476       .  S
C93          C94   1.412       .  A
C93          H97   1.083       .  S
C94          C95   1.415       .  A
C94         C873   1.503       .  S
C95          H98   1.082       .  S
C99         C100   1.405       .  A
C99         C104   1.401       .  A
C99         C937   1.487       .  S
C100        C101   1.411       .  A
C100        H105   1.083       .  S
C101        C102   1.411       .  A
C101        C838   1.499       .  S
C102        C103   1.407       .  A
C102        H106   1.083       .  S
C103        C104   1.401       .  A
C103        C857   1.484       .  S
C104        H107   1.084       .  S
C108        C109   1.412       .  A
C108        C113   1.412       .  A
C108        C806   1.503       .  S
C109        C110   1.401       .  A
C109        H114   1.082       .  S
C110        C111   1.391       .  A
C110        C921   1.468       .  S
C111        C112   1.393       .  A
C111        H115   1.084       .  S
C112        C113   1.403       .  A
C112        C822   1.473       .  S
C113        H116   1.081       .  S
C117        C118   1.412       .  A
C117        C122   1.410       .  A
C117        C774   1.503       .  S
C118        C119   1.409       .  A
C118        H123   1.083       .  S
C119        C120   1.402       .  A
C119        C793   1.491       .  S
C120        C121   1.399       .  A
C120        H124   1.083       .  S
C121        C122   1.403       .  A
C121        C905   1.485       .  S
C122        H125   1.082       .  S
C126        C163   1.449       .  S
C126       C1129   1.464       .  S
C126        N144   1.352       .  A
N127        N144   1.325       .  A
N127        N149   1.323       .  A
N127       Co164   2.100       .  S
C128        C166   1.464       .  S
C128        H173   1.082       .  S
C128        N153   1.341       .  A
H129        C170   1.081       .  S
C130        C134   1.451       .  S
C130        H159   1.082       .  S
C130        N154   1.335       .  A
Co131       N149   2.064       .  S
Co131       N139   2.096       .  S
Co131       N171   2.100       .  S
Co131       N147   2.066       .  S
Co131      Cl175   2.460       .  S
N132        C170   1.339       .  A
N132        N139   1.316       .  A
N132       Co133   2.070       .  S
Co133       N136   2.106       .  S
Co133       N153   2.096       .  S
Co133       N140   2.067       .  S
Co133      Cl175   2.431       .  S
C134        C998   1.470       .  S
C134        N172   1.353       .  A
N135        N142   1.317       .  A
N135        N165   1.329       .  A
N135       Co168   2.095       .  S
N136        N154   1.323       .  A
N136        N172   1.325       .  A
N137        C166   1.345       .  A
N137        N147   1.320       .  A
H138        C163   1.082       .  S
N139        N160   1.328       .  A
N140        N158   1.316       .  A
N140        N145   1.320       .  A
C141        C169   1.465       .  S
C141        C790   1.474       .  S
C141        N145   1.347       .  A
N142        C157   1.336       .  A
N142       Co164   2.071       .  S
C143        C146   1.477       .  S
C143        H177   1.078       .  S
C143        N171   1.347       .  A
C146       C1049   1.499       .  S
C146        N167   1.349       .  A
N147        N153   1.321       .  A
N148        C174   1.345       .  A
N148        N150   1.322       .  A
N148       Co164   2.108       .  S
N149        C163   1.334       .  A
N150        N178   1.319       .  A
N150       Co168   2.060       .  S
H151        C174   1.081       .  S
H152        C169   1.082       .  S
N154       Co168   2.065       .  S
N155        N167   1.321       .  A
N155        N171   1.315       .  A
N155       Co164   2.065       .  S
C156        C170   1.462       .  S
C156        C854   1.493       .  S
C156        N160   1.355       .  A
C157        C176   1.457       .  S
C157        H161   1.082       .  S
N158        C169   1.345       .  A
N158       Co168   2.087       .  S
C162        C174   1.468       .  S
C162        C889   1.474       .  S
C162        N178   1.343       .  A
Co164      Cl175   2.432       .  S
N165        C176   1.356       .  A
C166        C825   1.476       .  S
Co168      Cl175   2.470       .  S
C176       C1078   1.483       .  S
C179        C180   1.420       .  A
C179        C184   1.405       .  A
C179        C761   1.497       .  S
C180        C181   1.410       .  A
C180       C1017   1.493       .  S
C181        C182   1.407   1_565  A
C181        H186   1.083       .  S
C182        C183   1.415       .  A
C182        C841   1.497       .  S
C183        C184   1.403   1_545  A
C183        C742   1.489       .  S
C184        H185   1.084       .  S
C187        C188   1.423       .  A
C187        C192   1.410   1_655  A
C187        C726   1.502       .  S
C188        C189   1.410   1_655  A
C188        C966   1.495   1_556  S
C189        C190   1.405       .  A
C189        H194   1.085   1_556  S
C190        C191   1.418       .  A
C190        C870   1.500   1_556  S
C191        C192   1.406       .  A
C191        C710   1.487       .  S
C192        H193   1.085       .  S
C195        C196   1.420       .  A
C195        C200   1.400   1_655  A
C195       C1110   1.491       .  S
C196        C197   1.414   1_655  A
C196        C697   1.499       .  S
C197        C198   1.413       .  A
C197        H202   1.083       .  S
C198        C199   1.417       .  A
C198        C678   1.502       .  S
C199        C200   1.396       .  A
C199        C809   1.482       .  S
C200        H201   1.085       .  S
C203        C204   1.421       .  A
C203        C208   1.414       .  A
C203       C1065   1.505       .  S
C204        C205   1.405       .  A
C204        C662   1.491       .  S
C205        C206   1.402   1_565  A
C205        H210   1.085       .  S
C206        C207   1.416       .  A
C206        C646   1.494       .  S
C207        C208   1.411   1_545  A
C207        C777   1.489       .  S
C208        H209   1.084   1_556  S
C211        C212   1.403       .  A
C211        C216   1.395       .  A
C211        C614   1.473       .  S
C212        C213   1.409       .  A
C212        H217   1.083       .  S
C213        C214   1.411       .  A
C213        C665   1.490       .  S
C214        C215   1.401       .  A
C214        H218   1.083       .  S
C215        C216   1.391       .  A
C215        C630   1.470       .  S
C216        H219   1.085       .  S
C220        C221   1.411       .  A
C220        C225   1.403       .  A
C220        C598   1.494       .  S
C221        C222   1.414       .  A
C221        H226   1.083       .  S
C222        C223   1.412       .  A
C222        C729   1.504       .  S
C223        C224   1.406       .  A
C223        H227   1.081       .  S
C224        C225   1.397       .  A
C224        C582   1.484       .  S
C225        H228   1.085       .  S
C229        C230   1.412       .  A
C229        C234   1.409       .  A
C229        C649   1.499       .  S
C230        C231   1.404       .  A
C230        H235   1.082       .  S
C231        C232   1.393       .  A
C231        C569   1.476       .  S
C232        C233   1.397       .  A
C232        H236   1.084       .  S
C233        C234   1.403       .  A
C233        C550   1.480       .  S
C234        H237   1.082       .  S
C238        C239   1.397       .  A
C238        C243   1.404       .  A
C238        C534   1.482       .  S
C239        C240   1.400       .  A
C239        H244   1.085       .  S
C240        C241   1.405       .  A
C240        C518   1.488       .  S
C241        C242   1.418       .  A
C241        H245   1.081       .  S
C242        C243   1.416       .  A
C242        C713   1.516       .  S
C243        H246   1.080       .  S
C247        C248   1.414       .  A
C247        C252   1.413       .  A
C247        C681   1.506       .  S
C248        C249   1.407       .  A
C248        H253   1.082       .  S
C249        C250   1.397       .  A
C249        C502   1.493       .  S
C250        C251   1.402       .  A
C250        H254   1.082       .  S
C251        C252   1.407       .  A
C251        C489   1.488       .  S
C252        H255   1.081       .  S
C256        C257   1.405       .  A
C256        C261   1.395       .  A
C256        C454   1.476       .  S
C257        C258   1.409       .  A
C257        H262   1.083       .  S
C258        C259   1.407       .  A
C258        C745   1.491       .  S
C259        C260   1.400       .  A
C259        H263   1.083       .  S
C260        C261   1.394       .  A
C260        C470   1.471       .  S
C261        H264   1.085       .  S
C265        C302   1.472       .  S
C265        C521   1.487       .  S
C265        N283   1.344       .  A
N266        N283   1.318       .  A
N266        N288   1.317       .  A
N266       Co303   2.060       .  S
C267        C305   1.459       .  S
C267        H312   1.081       .  S
C267        N292   1.335       .  A
H268        C309   1.082       .  S
C269        C273   1.465       .  S
C269        H298   1.082       .  S
C269        N293   1.346       .  A
Co270       N288   2.103       .  S
Co270       N278   2.056       .  S
Co270       N310   2.056       .  S
Co270       N286   2.100       .  S
Co270      Cl314   2.465       .  S
N271        C309   1.343       .  A
N271        N278   1.322       .  A
N271       Co272   2.104       .  S
Co272       N275   2.067       .  S
Co272       N292   2.067       .  S
Co272       N279   2.113       .  S
Co272      Cl314   2.431       .  S
C273        C438   1.478       .  S
C273        N311   1.345       .  A
N274        N281   1.322       .  A
N274        N304   1.319       .  A
N274       Co307   2.055       .  S
N275        N293   1.318       .  A
N275        N311   1.319       .  A
N276        C305   1.357       .  A
N276        N286   1.330       .  A
H277        C302   1.081       .  S
N278        N299   1.318       .  A
N279        N297   1.322       .  A
N279        N284   1.328       .  A
C280        C308   1.446       .  S
C280        C457   1.466       .  S
C280        N284   1.354       .  A
N281        C296   1.345       .  A
N281       Co303   2.114       .  S
C282        C285   1.449       .  S
C282        H316   1.082       .  S
C282        N310   1.332       .  A
C285        C553   1.467       .  S
C285        N306   1.352       .  A
N286        N292   1.317       .  A
N287        C313   1.334       .  A
N287        N289   1.316       .  A
N287       Co303   2.061       .  S
N288        C302   1.350       .  A
N289        N317   1.328       .  A
N289       Co307   2.094       .  S
H290        C313   1.082       .  S
H291        C308   1.082       .  S
N293       Co307   2.090       .  S
N294        N306   1.325       .  A
N294        N310   1.321       .  A
N294       Co303   2.100       .  S
C295        C309   1.467       .  S
C295        C617   1.472       .  S
C295        N299   1.342       .  A
C296        C315   1.466       .  S
C296        H300   1.080       .  S
N297        C308   1.330       .  A
N297       Co307   2.052       .  S
C301        C313   1.454       .  S
C301        C505   1.478       .  S
C301        N317   1.355       .  A
Co303      Cl314   2.428       .  S
N304        C315   1.341       .  A
C305        C601   1.491       .  S
Co307      Cl314   2.467       .  S
C315        C422   1.467       .  S
C318        C319   1.403       .  A
C318        C323   1.409       .  A
C318        C406   1.493       .  S
C319        C320   1.403       .  A
C319        H324   1.083       .  S
C320        C321   1.404       .  A
C320        C441   1.487       .  S
C321        C322   1.408       .  A
C321        H325   1.083       .  S
C322        C323   1.412       .  A
C322        C694   1.501       .  S
C323        H326   1.083       .  S
C327        C328   1.395       .  A
C327        C332   1.405       .  A
C327        C390   1.478       .  S
C328        C329   1.392       .  A
C328        H333   1.085       .  S
C329        C330   1.403       .  A
C329        C425   1.473       .  S
C330        C331   1.412       .  A
C330        H334   1.084       .  S
C331        C332   1.411       .  A
C331        C758   1.494       .  S
C332        H335   1.082       .  S
C336        C373   1.447       .  S
C336        C633   1.462       .  S
C336        N354   1.353       .  A
N337        N354   1.327       .  A
N337        N359   1.324       .  A
N337       Co374   2.113   1_655  S
C338        C376   1.465       .  S
C338        H383   1.081       .  S
C338        N363   1.346       .  A
H339        C380   1.082       .  S
C340        C344   1.451       .  S
C340        H369   1.082       .  S
C340        N364   1.334       .  A
Co341       N359   2.059   1_455  S
Co341       N349   2.096   1_465  S
Co341       N381   2.089       .  S
Co341       N357   2.059   1_565  S
Co341      Cl385   2.478       .  S
N342        C380   1.332       .  A
N342        N349   1.315       .  A
N342       Co343   2.062   1_655  S
Co343       N346   2.104   1_455  S
Co343       N363   2.113       .  S
Co343       N350   2.055       .  S
Co343      Cl385   2.419   1_545  S
C344        C473   1.468       .  S
C344        N382   1.352       .  A
N345        N352   1.317       .  A
N345        N375   1.329       .  A
N345       Co378   2.094   1_655  S
N346        N364   1.323       .  A
N346        N382   1.326       .  A
N347        C376   1.343       .  A
N347        N357   1.319       .  A
H348        C373   1.082       .  S
N349        N370   1.330       .  A
N350        N368   1.315       .  A
N350        N355   1.316       .  A
C351        C379   1.474       .  S
C351        C486   1.490       .  S
C351        N355   1.343       .  A
N352        C367   1.338       .  A
N352       Co374   2.075   1_655  S
C353        C356   1.477       .  S
C353        H387   1.078       .  S
C353        N381   1.347       .  A
C356        C537   1.503       .  S
C356        N377   1.350       .  A
N357        N363   1.322       .  A
N358        C384   1.345       .  A
N358        N360   1.322       .  A
N358       Co374   2.112       .  S
N359        C373   1.333       .  A
N360        N388   1.320       .  A
N360       Co378   2.062       .  S
H361        C384   1.081       .  S
H362        C379   1.081       .  S
N364       Co378   2.066   1_645  S
N365        N377   1.318       .  A
N365        N381   1.315       .  A
N365       Co374   2.071       .  S
C366        C380   1.460       .  S
C366        C585   1.490       .  S
C366        N370   1.357       .  A
C367        C386   1.459       .  S
C367        H371   1.081       .  S
N368        C379   1.350       .  A
N368       Co378   2.097   1_545  S
C372        C384   1.468       .  S
C372        C393   1.478       .  S
C372        N388   1.344       .  A
Co374      Cl385   2.422       .  S
N375        C386   1.354       .  A
C376        C566   1.471       .  S
Co378      Cl385   2.474       .  S
C386        C409   1.487       .  S
C389        C390   1.400       .  A
C389        C394   1.402       .  A
C389        H396   1.085       .  S
C390        C391   1.417       .  A
C391        C392   1.401       .  A
C391        C398   1.508       .  S
C392        C393   1.401       .  A
C392        H397   1.085       .  S
C393        C394   1.418       .  A
C394        C395   1.508       .  S
C395        H399   1.111       .  S
C395        H400   1.109       .  S
C395        H401   1.111       .  S
C398        H402   1.108       .  S
C398        H403   1.110       .  S
C398        H404   1.111       .  S
C405        C406   1.403       .  A
C405        C410   1.404       .  A
C405        H412   1.085       .  S
C406        C407   1.418       .  A
C407        C408   1.411       .  A
C407        C414   1.508       .  S
C408        C409   1.403       .  A
C408        H413   1.084       .  S
C409        C410   1.418       .  A
C410        C411   1.509       .  S
C411        H415   1.111       .  S
C411        H416   1.106       .  S
C411        H417   1.111       .  S
C414        H418   1.107       .  S
C414        H419   1.110       .  S
C414        H420   1.111       .  S
C421        C422   1.403       .  A
C421        C426   1.404       .  A
C421        H428   1.084       .  S
C422        C423   1.409       .  A
C423        C424   1.401       .  A
C423        C430   1.506       .  S
C424        C425   1.403       .  A
C424        H429   1.084       .  S
C425        C426   1.409       .  A
C426        C427   1.506       .  S
C427        H431   1.111       .  S
C427        H432   1.110       .  S
C427        H433   1.110       .  S
C430        H434   1.111       .  S
C430        H435   1.108       .  S
C430        H436   1.111       .  S
C437        C438   1.400       .  A
C437        C442   1.407       .  A
C437        H444   1.084       .  S
C438        C439   1.418       .  A
C439        C440   1.401       .  A
C439        C446   1.511       .  S
C440        C441   1.402       .  A
C440        H445   1.084       .  S
C441        C442   1.418       .  A
C442        C443   1.507       .  S
C443        H447   1.111       .  S
C443        H448   1.108       .  S
C443        H449   1.110       .  S
C446        H450   1.111       .  S
C446        H451   1.108       .  S
C446        H452   1.111       .  S
C453        C454   1.406       .  A
C453        C458   1.403       .  A
C453        H460   1.084       .  S
C454        C455   1.413       .  A
C455        C456   1.398       .  A
C455        C462   1.508       .  S
C456        C457   1.401       .  A
C456        H461   1.085       .  S
C457        C458   1.408       .  A
C458        C459   1.506       .  S
C459        H463   1.111       .  S
C459        H464   1.110       .  S
C459        H465   1.110       .  S
C462        H466   1.110       .  S
C462        H467   1.108       .  S
C462        H468   1.111       .  S
C469        C470   1.399       .  A
C469        C474   1.400       .  A
C469        H476   1.085       .  S
C470        C471   1.413       .  A
C471        C472   1.402       .  A
C471        C478   1.507       .  S
C472        C473   1.400       .  A
C472        H477   1.085       .  S
C473        C474   1.414       .  A
C474        C475   1.508       .  S
C475        H479   1.111       .  S
C475        H480   1.108       .  S
C475        H481   1.110       .  S
C478        H482   1.110       .  S
C478        H483   1.109       .  S
C478        H484   1.111       .  S
C485        C486   1.408       .  A
C485        C490   1.412       .  A
C485        H492   1.083       .  S
C486        C487   1.421       .  A
C487        C488   1.397       .  A
C487        C494   1.511       .  S
C488        C489   1.400       .  A
C488        H493   1.085       .  S
C489        C490   1.415       .  A
C490        C491   1.506       .  S
C491        H495   1.111       .  S
C491        H496   1.110       .  S
C491        H497   1.108       .  S
C494        H498   1.111       .  S
C494        H499   1.109       .  S
C494        H500   1.111       .  S
C501        C502   1.403       .  A
C501        C506   1.401       .  A
C501        H508   1.084       .  S
C502        C503   1.422       .  A
C503        C504   1.408       .  A
C503        C510   1.509       .  S
C504        C505   1.400       .  A
C504        H509   1.084       .  S
C505        C506   1.416       .  A
C506        C507   1.510       .  S
C507        H511   1.111       .  S
C507        H512   1.111       .  S
C507        H513   1.107       .  S
C510        H514   1.110       .  S
C510        H515   1.106       .  S
C510        H516   1.111       .  S
C517        C518   1.400       .  A
C517        C522   1.398       .  A
C517        H524   1.083       .  S
C518        C519   1.415       .  A
C519        C520   1.412       .  A
C519        C526   1.507       .  S
C520        C521   1.407       .  A
C520        H525   1.083       .  S
C521        C522   1.418       .  A
C522        C523   1.509       .  S
C523        H527   1.111       .  S
C523        H528   1.108       .  S
C523        H529   1.109       .  S
C526        H530   1.109       .  S
C526        H531   1.110       .  S
C526        H532   1.111       .  S
C533        C534   1.402       .  A
C533        C538   1.416       .  A
C533        H540   1.084       .  S
C534        C535   1.410       .  A
C535        C536   1.395       .  A
C535        C542   1.511       .  S
C536        C537   1.409       .  A
C536        H541   1.083       .  S
C537        C538   1.424       .  A
C538        C539   1.503       .  S
C539        H543   1.111       .  S
C539        H544   1.108       .  S
C539        H545   1.110       .  S
C542        H546   1.109       .  S
C542        H547   1.107       .  S
C542        H548   1.111       .  S
C549        C550   1.407       .  A
C549        C554   1.401       .  A
C549        H556   1.084       .  S
C550        C551   1.416       .  A
C551        C552   1.399       .  A
C551        C558   1.509       .  S
C552        C553   1.401       .  A
C552        H557   1.085       .  S
C553        C554   1.409       .  A
C554        C555   1.507       .  S
C555        H559   1.111       .  S
C555        H560   1.110       .  S
C555        H561   1.110       .  S
C558        H562   1.110       .  S
C558        H563   1.107       .  S
C558        H564   1.111       .  S
C565        C566   1.402       .  A
C565        C570   1.405       .  A
C565        H572   1.085       .  S
C566        C567   1.413       .  A
C567        C568   1.400       .  A
C567        C574   1.508       .  S
C568        C569   1.400       .  A
C568        H573   1.085       .  S
C569        C570   1.414       .  A
C570        C571   1.507       .  S
C571        H575   1.111       .  S
C571        H576   1.110       .  S
C571        H577   1.108       .  S
C574        H578   1.109       .  S
C574        H579   1.111       .  S
C574        H580   1.111       .  S
C581        C582   1.407       .  A
C581        C586   1.415       .  A
C581        H588   1.084       .  S
C582        C583   1.411       .  A
C583        C584   1.395       .  A
C583        C590   1.507       .  S
C584        C585   1.405       .  A
C584        H589   1.082       .  S
C585        C586   1.415       .  A
C586        C587   1.505       .  S
C587        H591   1.111       .  S
C587        H592   1.110       .  S
C587        H593   1.110       .  S
C590        H594   1.103       .  S
C590        H595   1.110       .  S
C590        H596   1.111       .  S
C597        C598   1.405       .  A
C597        C602   1.401       .  A
C597        H604   1.085       .  S
C598        C599   1.416       .  A
C599        C600   1.412       .  A
C599        C606   1.507       .  S
C600        C601   1.408       .  A
C600        H605   1.084       .  S
C601        C602   1.418       .  A
C602        C603   1.509       .  S
C603        H607   1.111       .  S
C603        H608   1.110       .  S
C603        H609   1.107       .  S
C606        H610   1.108       .  S
C606        H611   1.110       .  S
C606        H612   1.111       .  S
C613        C614   1.400       .  A
C613        C618   1.401       .  A
C613        H620   1.084       .  S
C614        C615   1.415       .  A
C615        C616   1.399       .  A
C615        C622   1.507       .  S
C616        C617   1.400       .  A
C616        H621   1.084       .  S
C617        C618   1.417       .  A
C618        C619   1.509       .  S
C619        H623   1.111       .  S
C619        H624   1.110       .  S
C619        H625   1.109       .  S
C622        H626   1.110       .  S
C622        H627   1.108       .  S
C622        H628   1.111       .  S
C629        C630   1.401       .  A
C629        C634   1.402       .  A
C629        H636   1.085       .  S
C630        C631   1.413       .  A
C631        C632   1.399       .  A
C631        C638   1.506       .  S
C632        C633   1.398       .  A
C632        H637   1.085       .  S
C633        C634   1.411       .  A
C634        C635   1.506       .  S
C635        H639   1.111       .  S
C635        H640   1.110       .  S
C635        H641   1.110       .  S
C638        H642   1.110       .  S
C638        H643   1.108       .  S
C638        H644   1.111       .  S
C645        C646   1.404       .  A
C645        C650   1.407       .  A
C645        H652   1.080       .  S
C646        C647   1.414       .  A
C647        C648   1.401       .  A
C647        C654   1.506       .  S
C648        C649   1.408       .  A
C648        H653   1.083       .  S
C649        C650   1.420       .  A
C650        C651   1.508       .  S
C651        H655   1.108       .  S
C651        H656   1.110       .  S
C651        H657   1.107       .  S
C654        H658   1.110       .  S
C654        H659   1.106       .  S
C654        H660   1.110       .  S
C661        C662   1.403       .  A
C661        C666   1.406       .  A
C661        H668   1.084       .  S
C662        C663   1.417       .  A
C663        C664   1.398       .  A
C663        C670   1.506   1_565  S
C664        C665   1.403       .  A
C664        H669   1.084       .  S
C665        C666   1.420       .  A
C666        C667   1.507       .  S
C667        H671   1.111       .  S
C667        H672   1.107       .  S
C667        H673   1.110       .  S
C670        H674   1.105       .  S
C670        H675   1.110       .  S
C670        H676   1.111       .  S
C677        C678   1.404       .  A
C677        C682   1.401       .  A
C677        H684   1.078       .  S
C678        C679   1.418       .  A
C679        C680   1.410       .  A
C679        C686   1.508       .  S
C680        C681   1.412       .  A
C680        H685   1.083       .  S
C681        C682   1.419       .  A
C682        C683   1.509       .  S
C683        H687   1.110       .  S
C683        H688   1.107       .  S
C683        H689   1.110       .  S
C686        H690   1.107   1_455  S
C686        H691   1.110   1_455  S
C686        H692   1.111   1_455  S
C693        C694   1.408       .  A
C693        C698   1.407       .  A
C693        H700   1.083       .  S
C694        C695   1.420       .  A
C695        C696   1.404       .  A
C695        C702   1.508       .  S
C696        C697   1.405       .  A
C696        H701   1.083       .  S
C697        C698   1.417       .  A
C698        C699   1.509   1_655  S
C699        H703   1.111       .  S
C699        H704   1.110       .  S
C699        H705   1.107       .  S
C702        H706   1.107       .  S
C702        H707   1.110       .  S
C702        H708   1.111       .  S
C709        C710   1.400       .  A
C709        C714   1.408       .  A
C709        H716   1.085       .  S
C710        C711   1.412       .  A
C711        C712   1.402       .  A
C711        C718   1.510       .  S
C712        C713   1.413       .  A
C712        H717   1.081       .  S
C713        C714   1.428       .  A
C714        C715   1.508       .  S
C715        H719   1.111       .  S
C715        H720   1.106       .  S
C715        H721   1.110       .  S
C718        H722   1.109       .  S
C718        H723   1.110       .  S
C718        H724   1.110       .  S
C725        C726   1.404       .  A
C725        C730   1.406       .  A
C725        H732   1.084   1_655  S
C726        C727   1.418       .  A
C727        C728   1.409       .  A
C727        C734   1.505       .  S
C728        C729   1.408       .  A
C728        H733   1.084       .  S
C729        C730   1.421       .  A
C730        C731   1.506       .  S
C731        H735   1.111   1_655  S
C731        H736   1.110       .  S
C731        H737   1.105       .  S
C734        H738   1.106       .  S
C734        H739   1.110       .  S
C734        H740   1.110       .  S
C741        C742   1.403       .  A
C741        C746   1.403       .  A
C741        H748   1.084       .  S
C742        C743   1.415       .  A
C743        C744   1.402       .  A
C743        C750   1.509       .  S
C744        C745   1.406       .  A
C744        H749   1.084       .  S
C745        C746   1.419       .  A
C746        C747   1.507       .  S
C747        H751   1.111       .  S
C747        H752   1.110       .  S
C747        H753   1.108       .  S
C750        H754   1.107       .  S
C750        H755   1.110       .  S
C750        H756   1.111       .  S
C757        C758   1.404       .  A
C757        C762   1.402       .  A
C757        H764   1.084       .  S
C758        C759   1.419       .  A
C759        C760   1.408       .  A
C759        C766   1.508       .  S
C760        C761   1.405       .  A
C760        H765   1.083       .  S
C761        C762   1.419       .  A
C762        C763   1.510       .  S
C763        H767   1.111       .  S
C763        H768   1.110       .  S
C763        H769   1.108       .  S
C766        H770   1.106       .  S
C766        H771   1.110       .  S
C766        H772   1.111       .  S
C773        C774   1.412       .  A
C773        C778   1.407       .  A
C773        H780   1.083       .  S
C774        C775   1.422       .  A
C775        C776   1.404       .  A
C775        C782   1.509       .  S
C776        C777   1.400   1_554  A
C776        H781   1.083   1_554  S
C777        C778   1.410   1_556  A
C778        C779   1.506       .  S
C779        H783   1.111       .  S
C779        H784   1.110   1_554  S
C779        H785   1.109       .  S
C782        H786   1.107       .  S
C782        H787   1.110       .  S
C782        H788   1.108   1_554  S
C789        C790   1.400       .  A
C789        C794   1.407       .  A
C789        H796   1.084       .  S
C790        C791   1.414       .  A
C791        C792   1.400       .  A
C791        C798   1.510       .  S
C792        C793   1.405       .  A
C792        H797   1.084       .  S
C793        C794   1.420       .  A
C794        C795   1.507       .  S
C795        H799   1.110       .  S
C795        H800   1.110       .  S
C795        H801   1.109       .  S
C798        H802   1.109       .  S
C798        H803   1.110       .  S
C798        H804   1.111       .  S
C805        C806   1.413       .  A
C805        C810   1.403       .  A
C805        H812   1.081       .  S
C806        C807   1.425       .  A
C807        C808   1.402       .  A
C807        C814   1.509       .  S
C808        C809   1.399       .  A
C808        H813   1.084       .  S
C809        C810   1.407       .  A
C810        C811   1.507       .  S
C811        H815   1.111       .  S
C811        H816   1.107   1_455  S
C811        H817   1.110       .  S
C814        H818   1.110       .  S
C814        H819   1.107       .  S
C814        H820   1.111       .  S
C821        C822   1.400       .  A
C821        C826   1.399       .  A
C821        H828   1.085       .  S
C822        C823   1.412       .  A
C823        C824   1.402       .  A
C823        C830   1.508       .  S
C824        C825   1.403       .  A
C824        H829   1.083       .  S
C825        C826   1.418       .  A
C826        C827   1.509       .  S
C827        H831   1.111       .  S
C827        H832   1.110       .  S
C827        H833   1.110       .  S
C830        H834   1.110       .  S
C830        H835   1.107       .  S
C830        H836   1.111       .  S
C837        C838   1.407       .  A
C837        C842   1.403       .  A
C837        H844   1.082       .  S
C838        C839   1.420       .  A
C839        C840   1.408       .  A
C839        C846   1.507       .  S
C840        C841   1.406       .  A
C840        H845   1.084       .  S
C841        C842   1.414       .  A
C842        C843   1.509   1_545  S
C843        H847   1.111       .  S
C843        H848   1.108       .  S
C843        H849   1.110       .  S
C846        H850   1.110       .  S
C846        H851   1.107       .  S
C846        H852   1.111       .  S
C853        C854   1.409       .  A
C853        C858   1.405       .  A
C853        H860   1.082       .  S
C854        C855   1.417       .  A
C855        C856   1.409       .  A
C855        C862   1.507       .  S
C856        C857   1.403       .  A
C856        H861   1.084       .  S
C857        C858   1.411       .  A
C858        C859   1.508       .  S
C859        H863   1.111       .  S
C859        H864   1.109       .  S
C859        H865   1.111       .  S
C862        H866   1.109       .  S
C862        H867   1.110       .  S
C862        H868   1.111       .  S
C869        C870   1.401   1_556  A
C869        C874   1.403   1_556  A
C869        H876   1.073       .  S
C870        C871   1.417       .  A
C871        C872   1.406       .  A
C871        C878   1.505   1_455  S
C872        C873   1.409       .  A
C872        H877   1.083       .  S
C873        C874   1.419       .  A
C874        C875   1.507       .  S
C875        H879   1.111   1_554  S
C875        H880   1.110       .  S
C875        H881   1.106       .  S
C878        H882   1.110       .  S
C878        H883   1.106       .  S
C878        H884   1.111       .  S
C885        C886   1.406       .  A
C885        C890   1.404       .  A
C885        H892   1.084       .  S
C886        C887   1.412       .  A
C887        C888   1.401       .  A
C887        C894   1.506       .  S
C888        C889   1.403       .  A
C888        H893   1.085       .  S
C889        C890   1.412       .  A
C890        C891   1.507       .  S
C891        H895   1.111       .  S
C891        H896   1.108       .  S
C891        H897   1.110       .  S
C894        H898   1.111       .  S
C894        H899   1.107       .  S
C894        H900   1.111       .  S
C901        C902   1.405       .  A
C901        C906   1.400       .  A
C901        H908   1.084       .  S
C902        C903   1.417       .  A
C903        C904   1.407       .  A
C903        C910   1.506       .  S
C904        C905   1.405       .  A
C904        H909   1.085       .  S
C905        C906   1.415       .  A
C906        C907   1.509       .  S
C907        H911   1.111       .  S
C907        H912   1.110       .  S
C907        H913   1.107       .  S
C910        H914   1.110       .  S
C910        H915   1.110       .  S
C910        H916   1.111       .  S
C917        C918   1.400       .  A
C917        C922   1.402       .  A
C917        H924   1.085       .  S
C918        C919   1.412       .  A
C919        C920   1.396       .  A
C919        C926   1.510       .  S
C920        C921   1.400       .  A
C920        H925   1.085       .  S
C921        C922   1.414       .  A
C922        C923   1.507       .  S
C923        H927   1.110       .  S
C923        H928   1.108       .  S
C923        H929   1.110       .  S
C926        H930   1.108       .  S
C926        H931   1.111       .  S
C926        H932   1.111       .  S
C933        C934   1.402       .  A
C933        C938   1.399       .  A
C933        H940   1.084       .  S
C934        C935   1.410       .  A
C935        C936   1.412       .  A
C935        C942   1.505       .  S
C936        C937   1.408       .  A
C936        H941   1.084       .  S
C937        C938   1.415       .  A
C938        C939   1.509       .  S
C939        H943   1.111       .  S
C939        H944   1.111       .  S
C939        H945   1.107       .  S
C942        H946   1.110       .  S
C942        H947   1.110       .  S
C942        H948   1.111       .  S
C949        C950   1.398       .  A
C949        C954   1.401       .  A
C949        H956   1.085       .  S
C950        C951   1.410       .  A
C951        C952   1.401       .  A
C951        C958   1.508       .  S
C952        C953   1.403       .  A
C952        H957   1.084       .  S
C953        C954   1.417       .  A
C954        C955   1.508       .  S
C955        H959   1.111       .  S
C955        H960   1.108       .  S
C955        H961   1.110       .  S
C958        H962   1.110       .  S
C958        H963   1.111       .  S
C958        H964   1.111       .  S
C965        C966   1.406   1_556  A
C965        C970   1.409   1_556  A
C965        H972   1.084       .  S
C966        C967   1.418       .  A
C967        C968   1.398       .  A
C967        C974   1.507       .  S
C968        C969   1.403       .  A
C968        H973   1.084       .  S
C969        C970   1.419       .  A
C970        C971   1.508       .  S
C971        H975   1.111   1_554  S
C971        H976   1.110       .  S
C971        H977   1.107       .  S
C974        H978   1.103       .  S
C974        H979   1.110       .  S
C974        H980   1.111       .  S
C981        C982   1.406       .  A
C981        C986   1.403       .  A
C981        H988   1.084       .  S
C982        C983   1.412       .  A
C983        C984   1.401       .  A
C983        C990   1.509       .  S
C984        C985   1.405       .  A
C984        H989   1.085       .  S
C985        C986   1.410       .  A
C986        C987   1.507       .  S
C987        H991   1.111       .  S
C987        H992   1.111       .  S
C987        H993   1.110       .  S
C990        H994   1.107       .  S
C990        H995   1.111       .  S
C990        H996   1.110       .  S
C997        C998   1.403       .  A
C997       C1002   1.404       .  A
C997       H1004   1.085       .  S
C998        C999   1.410       .  A
C999       C1000   1.400       .  A
C999       C1006   1.508       .  S
C1000      C1001   1.406       .  A
C1000      H1005   1.084       .  S
C1001      C1002   1.414       .  A
C1002      C1003   1.508       .  S
C1003      H1007   1.111       .  S
C1003      H1008   1.110       .  S
C1003      H1009   1.108       .  S
C1006      H1010   1.110       .  S
C1006      H1011   1.111       .  S
C1006      H1012   1.111       .  S
C1013      C1014   1.408       .  A
C1013      C1018   1.407       .  A
C1013      H1020   1.083       .  S
C1014      C1015   1.423       .  A
C1015      C1016   1.404       .  A
C1015      C1022   1.510       .  S
C1016      C1017   1.402       .  A
C1016      H1021   1.084       .  S
C1017      C1018   1.414       .  A
C1018      C1019   1.506       .  S
C1019      H1023   1.111       .  S
C1019      H1024   1.102       .  S
C1019      H1025   1.111       .  S
C1022      H1026   1.106       .  S
C1022      H1027   1.111       .  S
C1022      H1028   1.111       .  S
C1029      C1030   1.404       .  A
C1029      C1034   1.400       .  A
C1029      H1036   1.083       .  S
C1030      C1031   1.418       .  A
C1031      C1032   1.410       .  A
C1031      C1038   1.505       .  S
C1032      C1033   1.402       .  A
C1032      H1037   1.084       .  S
C1033      C1034   1.416       .  A
C1034      C1035   1.510       .  S
C1035      H1039   1.111       .  S
C1035      H1040   1.110       .  S
C1035      H1041   1.109       .  S
C1038      H1042   1.108       .  S
C1038      H1043   1.110       .  S
C1038      H1044   1.110       .  S
C1045      C1046   1.404       .  A
C1045      C1050   1.412       .  A
C1045      H1052   1.084       .  S
C1046      C1047   1.413       .  A
C1047      C1048   1.402       .  A
C1047      C1054   1.509       .  S
C1048      C1049   1.409       .  A
C1048      H1053   1.084       .  S
C1049      C1050   1.421       .  A
C1050      C1051   1.504       .  S
C1051      H1055   1.111       .  S
C1051      H1056   1.110       .  S
C1051      H1057   1.108       .  S
C1054      H1058   1.107       .  S
C1054      H1059   1.111       .  S
C1054      H1060   1.110       .  S
C1061      C1062   1.407       .  A
C1061      C1066   1.407       .  A
C1061      H1068   1.085       .  S
C1062      C1063   1.418       .  A
C1063      C1064   1.409   1_554  A
C1063      C1070   1.508   1_554  S
C1064      C1065   1.408       .  A
C1064      H1069   1.083       .  S
C1065      C1066   1.420   1_556  A
C1066      C1067   1.509       .  S
C1067      H1071   1.111       .  S
C1067      H1072   1.106       .  S
C1067      H1073   1.110       .  S
C1070      H1074   1.110       .  S
C1070      H1075   1.106   1_556  S
C1070      H1076   1.111       .  S
C1077      C1078   1.402       .  A
C1077      C1082   1.411       .  A
C1077      H1084   1.084       .  S
C1078      C1079   1.417       .  A
C1079      C1080   1.403       .  A
C1079      C1086   1.510       .  S
C1080      C1081   1.403       .  A
C1080      H1085   1.084       .  S
C1081      C1082   1.419       .  A
C1082      C1083   1.508       .  S
C1083      H1087   1.111       .  S
C1083      H1088   1.107       .  S
C1083      H1089   1.110       .  S
C1086      H1090   1.108       .  S
C1086      H1091   1.110       .  S
C1086      H1092   1.111       .  S
C1093      C1094   1.407       .  A
C1093      C1098   1.410       .  A
C1093      H1100   1.084       .  S
C1094      C1095   1.414       .  A
C1095      C1096   1.404       .  A
C1095      C1102   1.509       .  S
C1096      C1097   1.407       .  A
C1096      H1101   1.084       .  S
C1097      C1098   1.414       .  A
C1098      C1099   1.506       .  S
C1099      H1103   1.111       .  S
C1099      H1104   1.111       .  S
C1099      H1105   1.108       .  S
C1102      H1106   1.110       .  S
C1102      H1107   1.108       .  S
C1102      H1108   1.111       .  S
C1109      C1110   1.405       .  A
C1109      C1114   1.408       .  A
C1109      H1116   1.084       .  S
C1110      C1111   1.415       .  A
C1111      C1112   1.398       .  A
C1111      C1118   1.509       .  S
C1112      C1113   1.405       .  A
C1112      H1117   1.082       .  S
C1113      C1114   1.420       .  A
C1114      C1115   1.507       .  S
C1115      H1119   1.111       .  S
C1115      H1120   1.107       .  S
C1115      H1121   1.110       .  S
C1118      H1122   1.111       .  S
C1118      H1123   1.106       .  S
C1118      H1124   1.111       .  S
C1125      C1126   1.404       .  A
C1125      C1130   1.401       .  A
C1125      H1132   1.084       .  S
C1126      C1127   1.416       .  A
C1127      C1128   1.400       .  A
C1127      C1134   1.508       .  S
C1128      C1129   1.399       .  A
C1128      H1133   1.085       .  S
C1129      C1130   1.410       .  A
C1130      C1131   1.507       .  S
C1131      H1135   1.111       .  S
C1131      H1136   1.111       .  S
C1131      H1137   1.110       .  S
C1134      H1138   1.108       .  S
C1134      H1139   1.110       .  S
C1134      H1140   1.111       .  S
C1141      C1142   1.400       .  A
C1141      C1146   1.400       .  A
C1141      H1148   1.085       .  S
C1142      C1143   1.417       .  A
C1143      C1144   1.404       .  A
C1143      C1150   1.509       .  S
C1144      C1145   1.400       .  A
C1144      H1149   1.084       .  S
C1145      C1146   1.415       .  A
C1146      C1147   1.508       .  S
C1147      H1151   1.111       .  S
C1147      H1152   1.110       .  S
C1147      H1153   1.109       .  S
C1150      H1154   1.107       .  S
C1150      H1155   1.110       .  S
C1150      H1156   1.111       .  S
