geometry optimzed in LAMMPS
_audit_creation_date              2020-12-01 
_audit_creation_method            'lammps2cif' 
_symmetry_space_group_name_H-M    'P1' 
_symmetry_Int_Tables_number       1 
_symmetry_cell_setting            triclinic 
loop_ 
_symmetry_equiv_pos_as_xyz 
  x,y,z 
_cell_length_a                    48.72966488 
_cell_length_b                    55.38683179415652 
_cell_length_c                    51.960628239865635 
_cell_angle_alpha                 89.62689265425638 
_cell_angle_beta                  89.95623519443997 
_cell_angle_gamma                 90.1266128122291 
loop_ 
_atom_site_label 
_atom_site_type_symbol 
_atom_site_fract_x 
_atom_site_fract_y 
_atom_site_fract_z 
_atom_site_charge 
C1          C  0.08100367  0.68837073  0.93321427     0.80800
N2          N  0.06689118  0.67177684  0.94744636    -0.77500
C3          C  0.04212851  0.66297457  0.93915387     0.83300
N4          N  0.03172936  0.67100775  0.91605710    -0.77400
C5          C  0.04607713  0.68786836  0.90196273     0.83400
N6          N  0.07011733  0.69651167  0.91099070    -0.79100
C7          C  0.87175200  0.68963173  0.93257424     0.80800
N8          N  0.88556584  0.67330511  0.94746974    -0.77500
C9          C  0.90996057  0.66352847  0.93920017     0.83300
N10         N  0.92043372  0.67066152  0.91581030    -0.77400
C11         C  0.90643210  0.68715163  0.90109368     0.83400
N12         N  0.88265706  0.69648316  0.90984975    -0.79100
C13         C  0.90653370  0.68892283  0.14445479     0.80800
N14         N  0.92018886  0.67099127  0.13158640    -0.77500
C15         C  0.91096739  0.66392673  0.10780341     0.83300
N16         N  0.88796396  0.67460482  0.09773286    -0.77400
C17         C  0.87469880  0.69234134  0.11063737     0.83400
N18         N  0.88451003  0.69960266  0.13349978    -0.79100
C19         C  0.04730639  0.68176192  0.15035676     0.80800
N20         N  0.07063494  0.69182842  0.14130387    -0.77500
C21         C  0.08058538  0.68641121  0.11790505     0.83300
N22         N  0.06637842  0.67096725  0.10260849    -0.77400
C23         C  0.04233143  0.66069619  0.11097572     0.83400
N24         N  0.03266049  0.66624924  0.13509683    -0.79100
C25         C  0.91003072  0.52056474  0.14917516     0.80800
N26         N  0.88698224  0.50986487  0.14024543    -0.77500
C27         C  0.87672418  0.51553098  0.11690240     0.83300
N28         N  0.89013004  0.53174931  0.10178505    -0.77400
C29         C  0.91342291  0.54290821  0.11021564     0.83400
N30         N  0.92367779  0.53703435  0.13403557    -0.79100
C31         C  0.87172026  0.51893935  0.93118536     0.80800
N32         N  0.88210606  0.51335570  0.90790885    -0.77500
C33         C  0.90589916  0.52298473  0.89918035     0.83300
N34         N  0.92042511  0.53842868  0.91468099    -0.77400
C35         C  0.91022345  0.54455497  0.93847650     0.83400
N36         N  0.88591411  0.53441862  0.94658595    -0.79100
C37         C  0.07316386  0.51185516  0.93431327     0.80800
N38         N  0.06147183  0.52994881  0.94811895    -0.77500
C39         C  0.03743371  0.54049498  0.94016669     0.83300
N40         N  0.02517531  0.53252378  0.91800396    -0.77400
C41         C  0.03716676  0.51436948  0.90419665     0.83400
N42         N  0.06064087  0.50415033  0.91274604    -0.79100
C43         C  0.03942979  0.51550932  0.14711809     0.80800
N44         N  0.02665340  0.53299856  0.13261083    -0.77500
C45         C  0.03839875  0.54078239  0.10994511     0.83300
N46         N  0.06291257  0.53090904  0.10240900    -0.77400
C47         C  0.07548724  0.51358632  0.11694660     0.83400
N48         N  0.06334484  0.50590933  0.13886349    -0.79100
O49         O  0.03096027  0.65151589  0.98151328    -0.74700
O50         O  0.00752884  0.63240058  0.94930775    -0.53600
C51         C  0.02565147  0.64777994  0.95753765     0.79000
O52         O  0.02974648  0.55400744  0.06743121    -0.59300
O53         O  0.00597133  0.57310998  0.09931584    -0.52300
C54         C  0.02362949  0.55722729  0.09132971     0.71100
O55         O  0.02954766  0.55437112  0.98205967    -0.73800
O56         O  0.00561385  0.57327888  0.94988655    -0.54400
C57         C  0.02324592  0.55743459  0.95819965     0.77100
O58         O  0.03102393  0.65073129  0.06816329    -0.59000
O59         O  0.00759192  0.63090716  0.10007306    -0.52100
C60         C  0.02577865  0.64636701  0.09211677     0.73700
Zr61       Zr  0.01616576  0.63924783  0.02470633     2.54700
O62         O  0.06607930  0.64179962  0.02409863    -0.79500
O63         O  0.01034859  0.68290685  0.02665347    -0.93000
Zr64       Zr  0.01664963  0.56878394  0.02463039     2.64700
O65         O  0.06635289  0.57375664  0.02437318    -0.97900
O66         O  0.01572806  0.52483985  0.02513274    -0.80000
O67         O  0.01663704  0.60411140  0.99847848    -0.83300
O68         O  0.01705083  0.60377644  0.05066127    -2.18000
O69         O  0.92142963  0.65095928  0.06640956    -0.66700
O70         O  0.94542797  0.63278091  0.09894167    -0.51300
C71         C  0.92714478  0.64789075  0.09035295     0.72000
O72         O  0.92132347  0.55518093  0.98132152    -0.59600
O73         O  0.94442356  0.57524380  0.94930516    -0.51600
C74         C  0.92651613  0.55943799  0.95732767     0.73800
O75         O  0.92273727  0.55504485  0.06769517    -0.71000
O76         O  0.94632660  0.57424973  0.09967040    -0.49700
C77         C  0.92862091  0.55857856  0.09158956     0.75200
O78         O  0.92085276  0.65184443  0.98152616    -0.66400
O79         O  0.94447444  0.63280286  0.94953381    -0.53600
C80         C  0.92625051  0.64817139  0.95763423     0.73600
Zr81       Zr  0.93606666  0.63853344  0.02394171     2.77500
O82         O  0.88604127  0.63989947  0.02343219    -0.97100
O83         O  0.94240740  0.68215396  0.02386507    -0.77900
Zr84       Zr  0.93601170  0.56811438  0.02433842     2.70100
O85         O  0.88610459  0.56968893  0.02397042    -0.79200
O86         O  0.93923505  0.52422874  0.02499409    -0.98300
Zr87       Zr  0.97602345  0.60370694  0.97187333     2.21500
Zr88       Zr  0.97620702  0.60336134  0.07676639     2.11100
O89         O  0.93550817  0.60325637  0.05025466    -2.46900
O90         O  0.93540920  0.60337606  0.99813844    -0.79000
O91         O  0.97587313  0.63900254  0.05021356    -0.71200
O92         O  0.97634543  0.56832541  0.99893680    -2.32100
O93         O  0.97626224  0.63918260  0.99840166    -2.28300
O94         O  0.97626707  0.56825561  0.05002649    -0.72900
H95         H  0.03325280  0.60362717  0.06129809     0.79100
H96         H  0.97623043  0.55389376  0.98860252     0.80200
H97         H  0.91925210  0.60316328  0.06085078     0.82400
H98         H  0.97619624  0.65356167  0.98782373     0.80000
H99         H  0.03478265  0.52000289  0.02105802     0.43000
H100        H  0.95325053  0.52061118  0.03825430     0.42000
H101        H  0.88030872  0.55305328  0.01965141     0.41700
H102        H  0.88054901  0.63367945  0.00637084     0.39600
H103        H  0.92601489  0.68854945  0.03276565     0.42700
H104        H  0.00861349  0.68826883  0.00851876     0.37500
H105        H  0.07212418  0.63400529  0.04032504     0.43600
H106        H  0.07309969  0.56246648  0.01111155     0.40100
H107        H  0.88026471  0.62707249  0.03564686     0.45000
H108        H  0.02846906  0.68911285  0.03218165     0.43700
H109        H  0.06942495  0.58999282  0.01681397     0.43800
H110        H  0.92172533  0.51865418  0.03270805     0.44200
C111        C  0.57158101  0.01660007  0.12217233     0.80800
N112        N  0.55230734  0.03033551  0.10995961    -0.77500
C113        C  0.54144451  0.02323415  0.08683141     0.83300
N114        N  0.54992181  0.00188381  0.07630609    -0.77400
C115        C  0.56940731  0.98830856  0.08861607     0.83400
N116        N  0.58019922  0.99600793  0.11106947    -0.79100
C117        C  0.57615442  0.01700007  0.93460006     0.80800
N118        N  0.55808651  0.03051348  0.94794643    -0.77500
C119        C  0.54155508  0.02038796  0.96632376     0.83300
N120        N  0.54422349  0.99607966  0.97198437    -0.77400
C121        C  0.56300619  0.98261484  0.95836530     0.83400
N122        N  0.57828578  0.99337956  0.93988273    -0.79100
C123        C  0.56312372  0.21686354  0.94948466     0.80800
N124        N  0.57002162  0.20849537  0.92590639    -0.77500
C125        C  0.56040307  0.18715159  0.91714674     0.83300
N126        N  0.54430710  0.17333863  0.93281225    -0.77400
C127        C  0.53717073  0.18110051  0.95687321     0.83400
N128        N  0.54650392  0.20314743  0.96516358    -0.79100
C129        C  0.56374295  0.21858417  0.09088515     0.80800
N130        N  0.57228713  0.21066610  0.11423094    -0.77500
C131        C  0.56374703  0.18928246  0.12394014     0.83300
N132        N  0.54681111  0.17518010  0.10962958    -0.77400
C133        C  0.53819558  0.18257887  0.08577283     0.83400
N134        N  0.54694030  0.20438490  0.07627384    -0.79100
C135        C  0.38300277  0.21870752  0.95474741     0.80800
N136        N  0.40056666  0.20469506  0.96906618    -0.77500
C137        C  0.41014721  0.18329509  0.95929913     0.83300
N138        N  0.40241194  0.17661229  0.93501774    -0.77400
C139        C  0.38520860  0.19074638  0.92081575     0.83400
N140        N  0.37531091  0.21130813  0.93107486    -0.79100
C141        C  0.38089828  0.01625084  0.92515200     0.80800
N142        N  0.39884450  0.02989903  0.93876304    -0.77500
C143        C  0.40950791  0.02166700  0.96152704     0.83300
N144        N  0.40225374  0.99904805  0.97031463    -0.77400
C145        C  0.38404852  0.98540704  0.95637495     0.83400
N146        N  0.37331691  0.99446583  0.93437627    -0.79100
C147        C  0.38303019  0.01512750  0.12589215     0.80800
N148        N  0.37563700  0.99331394  0.11687455    -0.77500
C149        C  0.38541879  0.98492558  0.09429410     0.83300
N150        N  0.40254931  0.99919934  0.07971461    -0.77400
C151        C  0.40997574  0.02165338  0.08849434     0.83400
N152        N  0.40002842  0.02936466  0.11164017    -0.79100
C153        C  0.38686008  0.22025158  0.09141013     0.80800
N154        N  0.40355766  0.20554456  0.07723547    -0.77500
C155        C  0.41082411  0.18330191  0.08677376     0.83300
N156        N  0.40116197  0.17620466  0.11044257    -0.77400
C157        C  0.38447947  0.19090463  0.12433972     0.83400
N158        N  0.37726229  0.21255789  0.11445750    -0.79100
O159        O  0.52830469  0.06306432  0.07688782    -0.74700
O160        O  0.50660443  0.03298175  0.05479295    -0.53600
C161        C  0.52397578  0.04063670  0.07191110     0.79000
O162        O  0.42135800  0.14299996  0.07645154    -0.59300
O163        O  0.44281862  0.17251735  0.05279683    -0.52300
C164        C  0.42616128  0.16533877  0.07084060     0.71100
O165        O  0.42140586  0.06182703  0.07726877    -0.73800
O166        O  0.44234084  0.03173660  0.05465549    -0.54400
C167        C  0.42574289  0.03931727  0.07229748     0.77100
O168        O  0.52690769  0.14279275  0.07532881    -0.59000
O169        O  0.50625810  0.17255334  0.05162986    -0.52100
C170        C  0.52265127  0.16511515  0.06966011     0.73700
Zr171      Zr  0.51425617  0.10262753  0.06086115     2.54700
O172        O  0.51530458  0.10378678  0.10768292    -0.79500
O173        O  0.56374672  0.10472743  0.05463968    -0.93000
Zr174      Zr  0.43395119  0.10253784  0.06198760     2.64700
O175        O  0.43605430  0.10502607  0.10873912    -0.97900
O176        O  0.38406746  0.10342701  0.05920687    -0.80000
O177        O  0.47407063  0.07830496  0.06242652    -0.83300
O178        O  0.47418921  0.12661864  0.06102441    -2.18000
O179        O  0.52659823  0.14132148  0.96972642    -0.66700
O180        O  0.50562617  0.17172278  0.99190955    -0.51300
C181        C  0.52210834  0.16386221  0.97420469     0.72000
O182        O  0.42122936  0.06160880  0.97197330    -0.59600
O183        O  0.44215405  0.03167749  0.99526075    -0.51600
C184        C  0.42558420  0.03916680  0.97740777     0.73800
O185        O  0.42109066  0.14297229  0.97065716    -0.71000
O186        O  0.44241397  0.17289316  0.99327744    -0.49700
C187        C  0.42572107  0.16546832  0.97556931     0.75200
O188        O  0.52659936  0.05991386  0.97429201    -0.66400
O189        O  0.50574228  0.03002384  0.99760039    -0.53600
C190        C  0.52310876  0.03747055  0.98043431     0.73600
Zr191      Zr  0.51334851  0.10124703  0.98560709     2.77500
O192        O  0.51394650  0.10138487  0.93870668    -0.97100
O193        O  0.56314656  0.10019127  0.98902515    -0.77900
Zr194      Zr  0.43284520  0.10226311  0.98665913     2.70100
O195        O  0.42803015  0.10307801  0.94002913    -0.79200
O196        O  0.38326242  0.10280817  0.99287096    -0.98300
Zr197      Zr  0.47364570  0.05324512  0.02485791     2.21500
Zr198      Zr  0.47405179  0.15106294  0.02268442     2.11100
O199        O  0.47344163  0.12571839  0.98525602    -2.46900
O200        O  0.47280590  0.07749075  0.98609274    -0.79000
O201        O  0.51445369  0.12628142  0.02259228    -0.71200
O202        O  0.43301659  0.07805597  0.02467768    -2.32100
O203        O  0.51422306  0.07783379  0.02388970    -2.28300
O204        O  0.43316402  0.12673595  0.02395287    -0.72900
H205        H  0.47439756  0.13667871  0.07612508     0.79100
H206        H  0.41681682  0.06798101  0.02501739     0.80200
H207        H  0.47341466  0.13540747  0.96974393     0.82400
H208        H  0.53046431  0.06788381  0.02408119     0.80000
H209        H  0.37859056  0.08657351  0.05555724     0.43000
H210        H  0.37867058  0.08681676  0.00034570     0.42000
H211        H  0.44536575  0.11034851  0.93370014     0.41700
H212        H  0.52929455  0.09061964  0.93392224     0.39600
H213        H  0.56936520  0.09245707  0.97291612     0.42700
H214        H  0.56914364  0.08832635  0.04915935     0.37500
H215        H  0.53395673  0.09826683  0.11240657     0.43600
H216        H  0.42255376  0.09305281  0.11518733     0.40100
H217        H  0.49718807  0.09243616  0.93371961     0.45000
H218        H  0.57131948  0.10630275  0.07222516     0.43700
H219        H  0.45416278  0.09815356  0.11328748     0.43800
H220        H  0.38022791  0.11432856  0.00707215     0.44200
C221        C  0.07782620  0.01218257  0.61721507     0.80800
N222        N  0.06452808  0.02574714  0.59926506    -0.77500
C223        C  0.04155065  0.01720535  0.58718095     0.83300
N224        N  0.03224828  0.99439024  0.59308734    -0.77400
C225        C  0.04577996  0.98077832  0.61122595     0.83400
N226        N  0.06799443  0.99009363  0.62332270    -0.79100
C227        C  0.88337168  0.01336369  0.62690243     0.80800
N228        N  0.88708879  0.98934006  0.62726419    -0.77500
C229        C  0.90476374  0.97838180  0.61101263     0.83300
N230        N  0.91896320  0.99200923  0.59313013    -0.77400
C231        C  0.91496983  0.01665134  0.59225457     0.83400
N232        N  0.89749682  0.02698153  0.60962024    -0.79100
C233        C  0.90279931  0.21213734  0.61136249     0.80800
N234        N  0.91792512  0.19827472  0.59477379    -0.77500
C235        C  0.90760641  0.17655509  0.58638229     0.83300
N236        N  0.88223187  0.16913524  0.59491651    -0.77400
C237        C  0.86728375  0.18314933  0.61122260     0.83400
N238        N  0.87799149  0.20420364  0.61938238    -0.79100
C239        C  0.04107208  0.21451934  0.61095720     0.80800
N240        N  0.02756950  0.19962441  0.59425635    -0.77500
C241        C  0.03986819  0.17874992  0.58610118     0.83300
N242        N  0.06564585  0.17315171  0.59498064    -0.77400
C243        C  0.07898835  0.18821169  0.61152699     0.83400
N244        N  0.06630878  0.20843195  0.61949277    -0.79100
C245        C  0.90605760  0.21141605  0.43417827     0.80800
N246        N  0.88243273  0.20275150  0.42420072    -0.77500
C247        C  0.87155125  0.18167235  0.43227540     0.83300
N248        N  0.88512876  0.16834942  0.45026805    -0.77400
C249        C  0.90946556  0.17632657  0.46040347     0.83400
N250        N  0.91993476  0.19815814  0.45234357    -0.79100
C251        C  0.87095619  0.01312255  0.43257328     0.80800
N252        N  0.88158988  0.99213412  0.42429904    -0.77500
C253        C  0.90453307  0.98267869  0.43491290     0.83300
N254        N  0.91819420  0.99520477  0.45378369    -0.77400
C255        C  0.90815954  0.01709616  0.46188221     0.83400
N256        N  0.88429162  0.02563930  0.45125423    -0.79100
C257        C  0.08059554  0.01528756  0.43331837     0.80800
N258        N  0.06535567  0.02768622  0.45063836    -0.77500
C259        C  0.04168157  0.01812054  0.46067317     0.83300
N260        N  0.03361804  0.99536231  0.45326215    -0.77400
C261        C  0.04915800  0.98298675  0.43559031     0.83400
N262        N  0.07198490  0.99338397  0.42561225    -0.79100
C263        C  0.04526546  0.21385546  0.43725657     0.80800
N264        N  0.06987165  0.20628973  0.42844743    -0.77500
C265        C  0.08072218  0.18505172  0.43598292     0.83300
N266        N  0.06611279  0.17051008  0.45227130    -0.77400
C267        C  0.04088266  0.17753239  0.46130220     0.83400
N268        N  0.03043991  0.19941672  0.45366568    -0.79100
O269        O  0.02870854  0.05724123  0.47228516    -0.74700
O270        O  0.00660764  0.02652447  0.49343479    -0.53600
C271        C  0.02420259  0.03463628  0.47662702     0.79000
O272        O  0.03045715  0.13816665  0.57483358    -0.59300
O273        O  0.00592191  0.16765073  0.55412073    -0.52300
C274        C  0.02436543  0.16052067  0.57050330     0.71100
O275        O  0.03139463  0.05694570  0.57407028    -0.73800
O276        O  0.00716500  0.02668893  0.55459589    -0.54400
C277        C  0.02561263  0.03444272  0.57058778     0.77100
O278        O  0.02994533  0.13748968  0.47269677    -0.59000
O279        O  0.00575034  0.16721483  0.49296360    -0.52100
C280        C  0.02425184  0.15984480  0.47677154     0.73700
Zr281      Zr  0.01484681  0.09736964  0.48634920     2.54700
O282        O  0.06408779  0.09601564  0.49404797    -0.79500
O283        O  0.01797805  0.10114530  0.43970275    -0.93000
Zr284      Zr  0.01714075  0.09748088  0.56058355     2.64700
O285        O  0.06636707  0.09855741  0.55220368    -0.97900
O286        O  0.02247193  0.09605571  0.60713338    -0.80000
O287        O  0.01612886  0.07254817  0.52356914    -0.83300
O288        O  0.01578972  0.12212804  0.52329070    -2.18000
O289        O  0.91967651  0.13677061  0.47368131    -0.66700
O290        O  0.94383113  0.16705028  0.49309133    -0.51300
C291        C  0.92549143  0.15923841  0.47702212     0.72000
O292        O  0.92486520  0.05607713  0.57823894    -0.59600
O293        O  0.94613158  0.02577670  0.55628110    -0.51600
C294        C  0.92978882  0.03354229  0.57416472     0.73800
O295        O  0.91926046  0.13663898  0.57506357    -0.71000
O296        O  0.94323823  0.16689194  0.55491176    -0.49700
C297        C  0.92462458  0.15916812  0.57096305     0.75200
O298        O  0.91851433  0.05653740  0.47518621    -0.66400
O299        O  0.94337061  0.02639891  0.49424479    -0.53600
C300        C  0.92446635  0.03408013  0.47853345     0.73600
Zr301      Zr  0.93401493  0.09666951  0.48793653     2.77500
O302        O  0.88410554  0.09700023  0.49108532    -0.97100
O303        O  0.93494473  0.09757078  0.44105152    -0.77900
Zr304      Zr  0.93639682  0.09666568  0.56295458     2.70100
O305        O  0.88663685  0.09272605  0.56351757    -0.79200
O306        O  0.94097774  0.09856169  0.60959008    -0.98300
Zr307      Zr  0.97549213  0.04763794  0.52428604     2.21500
Zr308      Zr  0.97473397  0.14612180  0.52415181     2.11100
O309        O  0.93437588  0.12103359  0.52527815    -2.46900
O310        O  0.93476989  0.07216169  0.52557925    -0.79000
O311        O  0.97417437  0.12090164  0.48675988    -0.71200
O312        O  0.97692285  0.07308470  0.56187046    -2.32100
O313        O  0.97455230  0.07296662  0.48637403    -2.28300
O314        O  0.97646384  0.12114656  0.56217735    -0.72900
H315        H  0.03187767  0.13236081  0.52290598     0.79100
H316        H  0.97757802  0.06327092  0.57729720     0.80200
H317        H  0.91802357  0.13086007  0.52550973     0.82400
H318        H  0.97424774  0.06322840  0.47103478     0.80000
H319        H  0.00424627  0.09097141  0.61365044     0.43000
H320        H  0.94756773  0.11513560  0.61312714     0.42000
H321        H  0.88166109  0.09316768  0.58199056     0.41700
H322        H  0.87952500  0.08287333  0.50205690     0.39600
H323        H  0.93946280  0.08089104  0.43582509     0.42700
H324        H  0.01122164  0.08555794  0.43295815     0.37500
H325        H  0.07224091  0.09268406  0.47698572     0.43600
H326        H  0.07138518  0.11588819  0.55188178     0.40100
H327        H  0.87972411  0.11112449  0.50190594     0.45000
H328        H  0.03791942  0.10111624  0.43600679     0.43700
H329        H  0.07481539  0.09222636  0.56819589     0.43800
H330        H  0.92188140  0.09827424  0.61611749     0.44200
C331        C  0.99844525  0.43778625  0.29722949    -0.10200
C332        C  0.97399156  0.45058732  0.29501457    -0.04100
C333        C  0.94880993  0.43878823  0.29727405    -0.10200
C334        C  0.94774186  0.41607847  0.31014060     0.10700
C335        C  0.97270669  0.40505646  0.31815189    -0.02000
C336        C  0.99824869  0.41528753  0.31034278     0.10500
C337        C  0.02270380  0.40319547  0.31649332    -0.12000
C338        C  0.02231058  0.38209831  0.33152509    -0.12000
C339        C  0.99738663  0.37205547  0.34009056     0.10500
C340        C  0.97217822  0.38318103  0.33263953    -0.02000
C341        C  0.92274165  0.40445379  0.31582416    -0.12200
C342        C  0.92210786  0.38307743  0.33058742    -0.12200
C343        C  0.94651056  0.37240026  0.33955561     0.10700
C344        C  0.94655047  0.35118282  0.35511203    -0.10200
C345        C  0.97144958  0.34134689  0.36282173    -0.04100
C346        C  0.99659555  0.35107216  0.35575493    -0.10200
H347        H  0.04232280  0.41063173  0.31061073     0.08000
H348        H  0.04165264  0.37373614  0.33658631     0.08000
H349        H  0.90351646  0.41241282  0.30971224     0.08200
H350        H  0.90241015  0.37505906  0.33521776     0.08200
H351        H  0.97449418  0.46778296  0.28480662     0.04600
H352        H  0.97128987  0.32489034  0.37438567     0.04600
C353        C  0.30312996  0.12891956  0.26770642    -0.10200
C354        C  0.31010515  0.10717081  0.25614215    -0.04100
C355        C  0.30035433  0.08497848  0.26484403    -0.10200
C356        C  0.28141595  0.08424780  0.28554285     0.10700
C357        C  0.27382275  0.10621264  0.29788238    -0.02000
C358        C  0.28458918  0.12873700  0.28885631     0.10500
C359        C  0.27671920  0.15008011  0.30136401    -0.12000
C360        C  0.25883636  0.14946635  0.32256057    -0.12000
C361        C  0.24833390  0.12747558  0.33208939     0.10500
C362        C  0.25580581  0.10556979  0.31952704    -0.02000
C363        C  0.27016586  0.06235081  0.29442084    -0.12200
C364        C  0.25228785  0.06174030  0.31550135    -0.12200
C365        C  0.24526517  0.08297989  0.32858536     0.10700
C366        C  0.22851249  0.08241215  0.35090818    -0.10200
C367        C  0.22262018  0.10387354  0.36343018    -0.04100
C368        C  0.23113596  0.12637299  0.35423027    -0.10200
H369        H  0.28458706  0.16739227  0.29491316     0.08000
H370        H  0.25365809  0.16632230  0.33179401     0.08000
H371        H  0.27534333  0.04548823  0.28518960     0.08200
H372        H  0.24442867  0.04440682  0.32188241     0.08200
H373        H  0.32378660  0.10749704  0.23961081     0.04600
H374        H  0.20898694  0.10310206  0.37996092     0.04600
C375        C  0.21986393  0.43041460  0.04869978    -0.10200
C376        C  0.20913824  0.43777481  0.02514862    -0.04100
C377        C  0.21928916  0.42980393  0.00167130    -0.10200
C378        C  0.24097482  0.41270072  0.00140550     0.10700
C379        C  0.25223750  0.40447361  0.02526699    -0.02000
C380        C  0.24134339  0.41302971  0.04910346     0.10500
C381        C  0.25220926  0.40393712  0.07227146    -0.12000
C382        C  0.27349707  0.38689485  0.07224011    -0.12000
C383        C  0.28524108  0.37894827  0.04906742     0.10500
C384        C  0.27447267  0.38772200  0.02528207    -0.02000
C385        C  0.25165939  0.40357490  0.97827153    -0.12200
C386        C  0.27312557  0.38672027  0.97834803    -0.12200
C387        C  0.28503504  0.37880008  0.00153254     0.10700
C388        C  0.30744982  0.36239666  0.00188549    -0.10200
C389        C  0.31957987  0.35650732  0.02535769    -0.04100
C390        C  0.30766068  0.36260986  0.04879067    -0.10200
H391        H  0.24416422  0.40990708  0.09058212     0.08000
H392        H  0.28128639  0.38040243  0.09052853     0.08000
H393        H  0.24337996  0.40943303  0.95993808     0.08200
H394        H  0.28080964  0.38026157  0.96008570     0.08200
H395        H  0.19218192  0.45050368  0.02504434     0.04600
H396        H  0.33612345  0.34336213  0.02547822     0.04600
C397        C  0.64929338  0.07824229  0.26575458    -0.10200
C398        C  0.63962342  0.09996223  0.25563001    -0.04100
C399        C  0.64738477  0.12236554  0.26509919    -0.10200
C400        C  0.66670090  0.12342984  0.28556592     0.10700
C401        C  0.67719008  0.10143209  0.29619401    -0.02000
C402        C  0.66874928  0.07872968  0.28597759     0.10500
C403        C  0.67965586  0.05736373  0.29646074    -0.12000
C404        C  0.69814545  0.05802755  0.31702126    -0.12000
C405        C  0.70613314  0.08006337  0.32798539     0.10500
C406        C  0.69573757  0.10208102  0.31737785    -0.02000
C407        C  0.67550123  0.14550279  0.29596606    -0.12200
C408        C  0.69385289  0.14613547  0.31674929    -0.12200
C409        C  0.70385818  0.12470873  0.32796028     0.10700
C410        C  0.72126995  0.12493271  0.34987040    -0.10200
C411        C  0.72985926  0.10310565  0.36058157    -0.04100
C412        C  0.72361556  0.08087808  0.34976821    -0.10200
H413        H  0.67372373  0.03993886  0.28891778     0.08000
H414        H  0.70569065  0.04108191  0.32469600     0.08000
H415        H  0.66797809  0.16243160  0.28821957     0.08200
H416        H  0.69977156  0.16353453  0.32437103     0.08200
H417        H  0.62548615  0.09938893  0.23948186     0.04600
H418        H  0.74376750  0.10350126  0.37690288     0.04600
C419        C  0.00443406  0.75979450  0.29637782    -0.10200
C420        C  0.97989766  0.74799189  0.29106998    -0.04100
C421        C  0.95447036  0.75847759  0.29578981    -0.10200
C422        C  0.95325559  0.78006426  0.31048394     0.10700
C423        C  0.97817800  0.79079409  0.31927079    -0.02000
C424        C  0.00396148  0.78108193  0.31144095     0.10500
C425        C  0.02826755  0.79252792  0.31937187    -0.12000
C426        C  0.02750284  0.81255471  0.33574024    -0.12000
C427        C  0.00238724  0.82224703  0.34402605     0.10500
C428        C  0.97735051  0.81169739  0.33515687    -0.02000
C429        C  0.92815092  0.79093061  0.31705894    -0.12200
C430        C  0.92729891  0.81155481  0.33266382    -0.12200
C431        C  0.95153025  0.82204489  0.34216859     0.10700
C432        C  0.95118891  0.84248759  0.35866142    -0.10200
C433        C  0.97585406  0.85151345  0.36786728    -0.04100
C434        C  0.00119754  0.84214500  0.36105368    -0.10200
H435        H  0.04804931  0.78549792  0.31361226     0.08000
H436        H  0.04672377  0.82042331  0.34197740     0.08000
H437        H  0.90896444  0.78317380  0.31057860     0.08200
H438        H  0.90751288  0.81911015  0.33757380     0.08200
H439        H  0.98070109  0.73192167  0.27920865     0.04600
H440        H  0.97533472  0.86720428  0.38035085     0.04600
C441        C  0.30542246  0.12635113  0.77953609    -0.10200
C442        C  0.31364331  0.10423665  0.78980666    -0.04100
C443        C  0.30179440  0.08241664  0.78265014    -0.10200
C444        C  0.28020906  0.08245577  0.76444757     0.10700
C445        C  0.27135692  0.10481399  0.75347330    -0.02000
C446        C  0.28406010  0.12692041  0.76095569     0.10500
C447        C  0.27540969  0.14861008  0.74932000    -0.12000
C448        C  0.25448370  0.14877624  0.73078579    -0.12000
C449        C  0.24126978  0.12729401  0.72349116     0.10500
C450        C  0.24983033  0.10501581  0.73494281    -0.11600
C451        C  0.26758264  0.06088833  0.75664581    -0.12200
C452        C  0.24655393  0.06106493  0.73837514    -0.12200
C453        C  0.23733123  0.08282521  0.72741215     0.10700
C454        C  0.21623415  0.08319250  0.70872843    -0.10200
C455        C  0.20766369  0.10514438  0.69851313    -0.04100
C456        C  0.21999916  0.12702309  0.70477118    -0.10200
H457        H  0.28499582  0.16558918  0.75434956     0.08000
H458        H  0.24860014  0.16586929  0.72222195     0.08000
H459        H  0.27405584  0.04368030  0.76454401     0.08200
H460        H  0.23749058  0.04399834  0.73286551     0.08200
H461        H  0.32926439  0.10402411  0.80471420     0.04600
H462        H  0.19113047  0.10507955  0.68447502     0.04600
C463        C  0.94478612  0.43173442  0.76048787    -0.10200
C464        C  0.97012551  0.44162254  0.76683961    -0.04100
C465        C  0.99464490  0.42953096  0.76261747    -0.10200
C466        C  0.99467048  0.40848614  0.74733962     0.10700
C467        C  0.96930043  0.39956290  0.73752320    -0.02000
C468        C  0.94402621  0.41048857  0.74512977     0.10500
C469        C  0.91923259  0.40007554  0.73681645    -0.12000
C470        C  0.91912091  0.37999167  0.72034040    -0.12000
C471        C  0.94379519  0.36953289  0.71185092     0.10500
C472        C  0.96921448  0.37914860  0.72096375    -0.02000
C473        C  0.01915717  0.39640301  0.74133659    -0.12200
C474        C  0.01915297  0.37665213  0.72464967    -0.12200
C475        C  0.99459019  0.36810354  0.71386419     0.10700
C476        C  0.99430937  0.34872963  0.69620861    -0.10200
C477        C  0.96942315  0.34049133  0.68674966    -0.04100
C478        C  0.94430721  0.34971060  0.69454513    -0.10200
H479        H  0.89980273  0.40786501  0.74249873     0.08000
H480        H  0.89959591  0.37286593  0.71392326     0.08000
H481        H  0.03858175  0.40270694  0.74889827     0.08200
H482        H  0.03855192  0.36824555  0.71995497     0.08200
H483        H  0.97052098  0.45742174  0.77917295     0.04600
H484        H  0.96956312  0.32512814  0.67379288     0.04600
C485        C  0.22495915  0.76885249  0.05009406    -0.10200
C486        C  0.21629712  0.75991836  0.02649786    -0.04100
C487        C  0.22626348  0.76852730  0.00306189    -0.10200
C488        C  0.24594865  0.78757723  0.00299260     0.10700
C489        C  0.25464733  0.79753918  0.02697467    -0.02000
C490        C  0.24379793  0.78833853  0.05062254     0.10500
C491        C  0.25220573  0.79871787  0.07394943    -0.12000
C492        C  0.27092933  0.81790119  0.07429964    -0.12000
C493        C  0.28232231  0.82700287  0.05137691     0.10500
C494        C  0.27430704  0.81664962  0.02737908    -0.02000
C495        C  0.25747365  0.79669797  0.98006522    -0.12200
C496        C  0.27716494  0.81526836  0.98048332    -0.12200
C497        C  0.28580337  0.82552074  0.00382180     0.10700
C498        C  0.30573338  0.84431764  0.00471672    -0.10200
C499        C  0.31287129  0.85404131  0.02836081    -0.04100
C500        C  0.30174057  0.84608354  0.05150169    -0.10200
H501        H  0.24423694  0.79206685  0.09212494     0.08000
H502        H  0.27676906  0.82540562  0.09269944     0.08000
H503        H  0.25143566  0.78934682  0.96165429     0.08200
H504        H  0.28565029  0.82160803  0.96238947     0.08200
H505        H  0.20072371  0.74584315  0.02642252     0.04600
H506        H  0.32704096  0.86923590  0.02874283     0.04600
C507        C  0.73238951  0.42914716  0.99960071    -0.10200
C508        C  0.74526773  0.43587888  0.02241781    -0.04100
C509        C  0.73930010  0.42507339  0.04593944    -0.10200
C510        C  0.71931289  0.40661714  0.04734466     0.10700
C511        C  0.70607260  0.39886187  0.02435999    -0.02000
C512        C  0.71272392  0.40998947  0.00023564     0.10500
C513        C  0.69959638  0.40156421  0.97787859    -0.12000
C514        C  0.68054175  0.38242709  0.97898580    -0.12000
C515        C  0.67374892  0.37119103  0.00251229     0.10500
C516        C  0.68652617  0.37967916  0.02554339    -0.02000
C517        C  0.71243430  0.39562865  0.07094385    -0.12200
C518        C  0.69316677  0.37695299  0.07214189    -0.12200
C519        C  0.68018931  0.36864775  0.04977645     0.10700
C520        C  0.66104356  0.34947498  0.05068710    -0.10200
C521        C  0.64851460  0.34190833  0.02815996    -0.04100
C522        C  0.65441645  0.35184754  0.00420743    -0.10200
H523        H  0.70413028  0.40971097  0.95935429     0.08000
H524        H  0.67102600  0.37647064  0.96129760     0.08000
H525        H  0.72201859  0.40141527  0.08867049     0.08200
H526        H  0.68846651  0.36897694  0.09072057     0.08200
H527        H  0.76107537  0.44975750  0.02181707     0.04600
H528        H  0.63430586  0.32675117  0.02924807     0.04600
C529        C  0.99962249  0.76174902  0.75284473    -0.10200
C530        C  0.97441046  0.75261092  0.76068999    -0.04100
C531        C  0.94962810  0.76213509  0.75223242    -0.10200
C532        C  0.94980669  0.77995936  0.73236930     0.10700
C533        C  0.97553154  0.78823697  0.72236983    -0.02000
C534        C  0.00059311  0.77979399  0.73339256     0.10500
C535        C  0.02559525  0.78949350  0.72459365    -0.12000
C536        C  0.02624120  0.80694443  0.70493571    -0.12000
C537        C  0.00194608  0.81488226  0.69307177     0.10500
C538        C  0.97623547  0.80551147  0.70189651    -0.02000
C539        C  0.92546065  0.78957693  0.72208026    -0.12200
C540        C  0.92615198  0.80622676  0.70154967    -0.12200
C541        C  0.95122382  0.81411251  0.69090481     0.10700
C542        C  0.95240393  0.83021987  0.66944584    -0.10200
C543        C  0.97791525  0.83730385  0.65996227    -0.04100
C544        C  0.00239561  0.83168607  0.67232326    -0.10200
H545        H  0.04484111  0.78343576  0.73277172     0.08000
H546        H  0.04596224  0.81375536  0.69852821     0.08000
H547        H  0.90571974  0.78375487  0.72946370     0.08200
H548        H  0.90688948  0.81265819  0.69375136     0.08200
H549        H  0.97405992  0.73923386  0.77611913     0.04600
H550        H  0.97857171  0.85054059  0.64446618     0.04600
C551        C  0.65372876  0.11871040  0.78847443    -0.10200
C552        C  0.65562006  0.10070230  0.80716287    -0.04100
C553        C  0.67686258  0.08403992  0.80768551    -0.10200
C554        C  0.69650045  0.08402554  0.78777018     0.10700
C555        C  0.69508711  0.10210159  0.76818265    -0.02000
C556        C  0.67388804  0.11985914  0.76870364     0.10500
C557        C  0.67347602  0.13784049  0.74947797    -0.12000
C558        C  0.69346608  0.13848004  0.73002393    -0.12000
C559        C  0.71445193  0.12110167  0.72911224     0.10500
C560        C  0.71524517  0.10266350  0.74839726    -0.02000
C561        C  0.71761161  0.06683214  0.78714481    -0.12200
C562        C  0.73718594  0.06719978  0.76756041    -0.12200
C563        C  0.73642242  0.08491399  0.74812770     0.10700
C564        C  0.75659340  0.08583010  0.72862679    -0.10200
C565        C  0.75517958  0.10368157  0.70979991    -0.04100
C566        C  0.73475575  0.12123706  0.70948605    -0.10200
H567        H  0.65757483  0.15146515  0.74934209     0.08000
H568        H  0.69234558  0.15261132  0.71556710     0.08000
H569        H  0.71910947  0.05295659  0.80185015     0.08200
H570        H  0.75313285  0.05361968  0.76786527     0.08200
H571        H  0.64059705  0.10020925  0.82263282     0.04600
H572        H  0.77089851  0.10409649  0.69495137     0.04600
C573        C  0.72685964  0.77404782  0.99547425    -0.10200
C574        C  0.73829034  0.76622240  0.01859700    -0.04100
C575        C  0.73039553  0.77536883  0.04232011    -0.10200
C576        C  0.71050468  0.79391855  0.04337939     0.10700
C577        C  0.69730028  0.80141264  0.02020360    -0.02000
C578        C  0.70561949  0.79163704  0.99602801     0.10500
C579        C  0.69216914  0.79943700  0.97353756    -0.12000
C580        C  0.67009786  0.81566086  0.97473641    -0.12000
C581        C  0.66104720  0.82491462  0.99842183     0.10500
C582        C  0.67543271  0.81838799  0.02131659    -0.02000
C583        C  0.70321437  0.80492360  0.06672434    -0.12200
C584        C  0.68281040  0.82266206  0.06755840    -0.12200
C585        C  0.66816023  0.82907895  0.04530091     0.10700
C586        C  0.64571762  0.84525717  0.04623398    -0.10200
C587        C  0.62991745  0.84877514  0.02431584    -0.04100
C588        C  0.63769181  0.84015437  0.00029541    -0.10200
H589        H  0.69820160  0.79249083  0.95494508     0.08000
H590        H  0.65975710  0.82058179  0.95703344     0.08000
H591        H  0.71326359  0.79982155  0.08451625     0.08200
H592        H  0.67769640  0.83059500  0.08594180     0.08200
H593        H  0.75440976  0.75269328  0.01807997     0.04600
H594        H  0.61284508  0.86131209  0.02542982     0.04600
C595        C  0.03267731  0.27334001  0.41782923     0.30400
C596        C  0.03227321  0.29871626  0.41966794    -0.36000
C597        C  0.03124880  0.31166916  0.39620140     0.16400
C598        C  0.03066604  0.30041703  0.37263790     0.22200
C599        C  0.03143527  0.27518155  0.37082050    -0.34100
C600        C  0.03205203  0.26232966  0.39413943     0.16300
O601        O  0.03452877  0.25752204  0.43705709    -0.26100
C602        C  0.03440168  0.23610204  0.42539845     0.06100
C603        C  0.03290497  0.23820570  0.39874726    -0.31000
O604        O  0.02416543  0.31527826  0.35367181    -0.22800
C605        C  0.02016989  0.33656874  0.36486877    -0.02800
C606        C  0.02540121  0.33537900  0.39134462    -0.17200
H607        H  0.03180755  0.30771790  0.43808605     0.20800
H608        H  0.03008519  0.26611540  0.35247382     0.19100
H609        H  0.03464598  0.22395875  0.38467444     0.19100
H610        H  0.01965324  0.34863454  0.40558153     0.14900
C611        C  0.19170047  0.15727162  0.39800396     0.30400
C612        C  0.17581491  0.15559402  0.42062120    -0.36000
C613        C  0.14943071  0.16571210  0.41955357     0.16400
C614        C  0.13986499  0.17761787  0.39800483     0.22200
C615        C  0.15575179  0.17933824  0.37539288    -0.34100
C616        C  0.18177950  0.16841751  0.37614633     0.16300
O617        O  0.21407321  0.14472355  0.39341862    -0.26100
C618        C  0.21851578  0.14704770  0.36813530     0.06100
C619        C  0.19926155  0.16224099  0.35654983    -0.31000
O620        O  0.11452283  0.18546743  0.40099550    -0.22800
C621        C  0.10737382  0.17805798  0.42455722    -0.02800
C622        C  0.12827836  0.16548350  0.43700388    -0.17200
H623        H  0.18279492  0.14550116  0.43726858     0.20800
H624        H  0.14766409  0.18733251  0.35792565     0.19100
H625        H  0.19564635  0.16465219  0.33614394     0.19100
H626        H  0.12812598  0.15782084  0.45621575     0.14900
C627        C  0.13373899  0.03268017  0.39169581     0.30400
C628        C  0.14660959  0.03593104  0.36770350    -0.36000
C629        C  0.17415527  0.04339252  0.36822705     0.16400
C630        C  0.18806479  0.04739247  0.39087820     0.22200
C631        C  0.17520341  0.04405115  0.41495516    -0.34100
C632        C  0.14751972  0.03683614  0.41441098     0.16300
O633        O  0.10819094  0.02560855  0.39548379    -0.26100
C634        C  0.10521502  0.02566192  0.42095577     0.06100
C635        C  0.12902112  0.03257946  0.43381140    -0.31000
O636        O  0.21192787  0.05808845  0.38695242    -0.22800
C637        C  0.21356322  0.06112357  0.36144422    -0.02800
C638        C  0.19070617  0.05175865  0.34885583    -0.17200
H639        H  0.13558290  0.03360306  0.34981784     0.20800
H640        H  0.18565829  0.04797042  0.43282346     0.19100
H641        H  0.13254628  0.03318988  0.45436152     0.19100
H642        H  0.18495649  0.05459823  0.32894938     0.14900
C643        C  0.04374090  0.93052276  0.39852753     0.30400
C644        C  0.04676269  0.91668675  0.37607528    -0.36000
C645        C  0.04066410  0.89195526  0.37832100     0.16400
C646        C  0.03256724  0.88156249  0.40124432     0.22200
C647        C  0.02957939  0.89544790  0.42374150    -0.34100
C648        C  0.03506120  0.92030768  0.42136477     0.16300
O649        O  0.04823201  0.95389754  0.40055638    -0.26100
C650        C  0.04183621  0.95909603  0.42487949     0.06100
C651        C  0.03333662  0.93881992  0.43880293    -0.31000
O652        O  0.02315620  0.85943731  0.39812055    -0.22800
C653        C  0.02444181  0.85545702  0.37278514    -0.02800
C654        C  0.03611123  0.87503085  0.35969512    -0.17200
H655        H  0.05227469  0.92488262  0.35781865     0.20800
H656        H  0.02187568  0.88764057  0.44147996     0.19100
H657        H  0.02818305  0.93764038  0.45903104     0.19100
H658        H  0.03580886  0.87829264  0.33912963     0.14900
C659        C  0.81570430  0.02692070  0.39156777     0.30400
C660        C  0.80163664  0.02861488  0.36794152    -0.36000
C661        C  0.77540484  0.03915827  0.36872248     0.16400
C662        C  0.76375440  0.04702431  0.39133861     0.22200
C663        C  0.77777480  0.04525129  0.41492031    -0.34100
C664        C  0.80422205  0.03533692  0.41403191     0.16300
O665        O  0.84075590  0.01849859  0.39512156    -0.26100
C666        C  0.84567606  0.02206108  0.42007249     0.06100
C667        C  0.82367382  0.03260124  0.43280336    -0.31000
O668        O  0.74123174  0.05958444  0.38737187    -0.22800
C669        C  0.73814550  0.06012154  0.36185600    -0.02800
C670        C  0.75876064  0.04732156  0.34928190    -0.17200
H671        H  0.81105465  0.02318800  0.35002369     0.20800
H672        H  0.76929610  0.05250503  0.43249814     0.19100
H673        H  0.82199886  0.03697874  0.45301066     0.19100
H674        H  0.76324243  0.04734168  0.32887520     0.14900
C675        C  0.91472199  0.93267755  0.39533004     0.30400
C676        C  0.91433876  0.92028962  0.37174074    -0.36000
C677        C  0.91585573  0.89493904  0.37308324     0.16400
C678        C  0.91756736  0.88264067  0.39610537     0.22200
C679        C  0.91768278  0.89507514  0.41977574    -0.34100
C680        C  0.91656207  0.92048430  0.41843110     0.16300
O681        O  0.91279305  0.95625364  0.39836144    -0.26100
C682        C  0.91399035  0.95957351  0.42376449     0.06100
C683        C  0.91639127  0.93782308  0.43727923    -0.31000
O684        O  0.92413213  0.85969540  0.39287671    -0.22800
C685        C  0.92725241  0.85694365  0.36744090    -0.02800
C686        C  0.92118109  0.87838141  0.35426526    -0.17200
H687        H  0.91388576  0.92984945  0.35351306     0.20800
H688        H  0.91999679  0.88563587  0.43794021     0.19100
H689        H  0.91575984  0.93504834  0.45790553     0.19100
H690        H  0.92606069  0.88254991  0.33439210     0.14900
C691        C  0.91497023  0.29934974  0.37080000     0.30400
C692        C  0.91620430  0.27412308  0.36856909    -0.36000
C693        C  0.91706062  0.26089257  0.39168587     0.16400
C694        C  0.91609614  0.27150372  0.41556328     0.22200
C695        C  0.91456741  0.29682576  0.41780909    -0.34100
C696        C  0.91394336  0.31017252  0.39455394     0.16300
O697        O  0.91993536  0.31491535  0.35199273    -0.26100
C698        C  0.92279600  0.33626450  0.36348062     0.06100
C699        C  0.91770173  0.33430701  0.38999616    -0.31000
O700        O  0.91536247  0.25534815  0.43456345    -0.22800
C701        C  0.91644275  0.23409335  0.42260958    -0.02800
C702        C  0.91762185  0.23667540  0.39594134    -0.17200
H703        H  0.91779833  0.26542712  0.35003565     0.20800
H704        H  0.91463581  0.30556422  0.43637578     0.19100
H705        H  0.92280923  0.34757703  0.40444501     0.19100
H706        H  0.91623921  0.22258742  0.38164553     0.14900
C707        C  0.76117616  0.15711472  0.39136884     0.30400
C708        C  0.77550240  0.15680065  0.41490475    -0.36000
C709        C  0.80320762  0.16379694  0.41393762     0.16400
C710        C  0.81562667  0.17137057  0.39144666     0.22200
C711        C  0.80134237  0.17167428  0.36793813    -0.34100
C712        C  0.77380895  0.16414072  0.36879836     0.16300
O713        O  0.73727866  0.14667727  0.38724024    -0.26100
C714        C  0.73450491  0.14634902  0.36165328     0.06100
C715        C  0.75641674  0.15779560  0.34930599    -0.31000
O716        O  0.84147113  0.17761116  0.39491821    -0.22800
C717        C  0.84598884  0.17350898  0.41985945    -0.02800
C718        C  0.82293380  0.16468815  0.43269176    -0.17200
H719        H  0.76614236  0.15013510  0.43246772     0.20800
H720        H  0.81138979  0.17641214  0.35001604     0.19100
H721        H  0.76144695  0.15707632  0.32902918     0.19100
H722        H  0.82066849  0.16073934  0.45300927     0.14900
C723        C  0.02787883  0.27262780  0.63256336     0.30400
C724        C  0.02973231  0.29801381  0.63204744    -0.36000
C725        C  0.02852767  0.30971089  0.65604916     0.16400
C726        C  0.02553958  0.29728778  0.67892000     0.22200
C727        C  0.02390127  0.27196669  0.67944322    -0.34100
C728        C  0.02481761  0.26035325  0.65551997     0.16300
O729        O  0.03050957  0.25788402  0.61271291    -0.26100
C730        C  0.02845341  0.23581447  0.62302933     0.06100
C731        C  0.02477995  0.23645973  0.64961788    -0.31000
O732        O  0.01937888  0.31159158  0.69829429    -0.22800
C733        C  0.01780144  0.33367899  0.68799827    -0.02800
C734        C  0.02469755  0.33350232  0.66181776    -0.17200
H735        H  0.03135927  0.30799773  0.61413733     0.20800
H736        H  0.02084594  0.26203669  0.69722798     0.19100
H737        H  0.02525053  0.22140490  0.66300672     0.19100
H738        H  0.02096704  0.34781570  0.64797224     0.14900
C739        C  0.13621584  0.18159334  0.65219774     0.30400
C740        C  0.15030793  0.18313598  0.67581016    -0.36000
C741        C  0.17532882  0.17060743  0.67751039     0.16400
C742        C  0.18596611  0.15801127  0.65703579     0.22200
C743        C  0.17186383  0.15648385  0.63343201    -0.34100
C744        C  0.14646963  0.16836330  0.63200051     0.16300
O745        O  0.11160582  0.19032082  0.64725924    -0.26100
C746        C  0.10558124  0.18222658  0.62379569     0.06100
C747        C  0.12656634  0.16836996  0.61330354    -0.31000
O748        O  0.20690075  0.14440527  0.66382174    -0.22800
C749        C  0.20979871  0.14770971  0.68911874    -0.02800
C750        C  0.19080943  0.16428332  0.69856670    -0.17200
H751        H  0.14146454  0.19216979  0.69224594     0.20800
H752        H  0.17923538  0.14526676  0.61792501     0.19100
H753        H  0.12698850  0.15947000  0.59482807     0.19100
H754        H  0.18598639  0.16780505  0.71852991     0.14900
C755        C  0.91271211  0.29815253  0.67723020     0.30400
C756        C  0.91336665  0.27280399  0.67887782    -0.36000
C757        C  0.91377830  0.26025356  0.65544411     0.16400
C758        C  0.91296674  0.27166414  0.63183699     0.22200
C759        C  0.91197980  0.29709396  0.63019387    -0.34100
C760        C  0.91182214  0.30973382  0.65373451     0.16300
O761        O  0.91790462  0.31309281  0.69637071    -0.26100
C762        C  0.92091121  0.33481463  0.68538026     0.06100
C763        C  0.91600878  0.33369016  0.65880446    -0.31000
O764        O  0.91210671  0.25615418  0.61243018    -0.22800
C765        C  0.91303453  0.23444262  0.62377138    -0.02800
C766        C  0.91401568  0.23613054  0.65053317    -0.17200
H767        H  0.91486619  0.26350353  0.69720540     0.20800
H768        H  0.91216185  0.30642242  0.61183146     0.19100
H769        H  0.92120416  0.34739493  0.64465583     0.19100
H770        H  0.91255723  0.22155481  0.66445762     0.14900
C771        C  0.80711547  0.17637829  0.64789351     0.30400
C772        C  0.79030874  0.18069057  0.66935713    -0.36000
C773        C  0.76761845  0.16531748  0.67253311     0.16400
C774        C  0.76171020  0.14709763  0.65546619     0.22200
C775        C  0.77829903  0.14307720  0.63363675    -0.34100
C776        C  0.80139497  0.15815417  0.63077520     0.16300
O777        O  0.83059743  0.18722310  0.64287619    -0.26100
C778        C  0.84047570  0.17583083  0.62235354     0.06100
C779        C  0.82315074  0.15742955  0.61391865    -0.31000
O780        O  0.74378768  0.13157210  0.66502462    -0.22800
C781        C  0.73830060  0.13948445  0.68873192    -0.02800
C782        C  0.75197265  0.16102098  0.69394475    -0.17200
H783        H  0.79580281  0.19392876  0.68370386     0.20800
H784        H  0.77482816  0.12786182  0.62107851     0.19100
H785        H  0.82633147  0.14511853  0.59811206     0.19100
H786        H  0.75475109  0.16919991  0.71263553     0.14900
C787        C  0.90795443  0.92105967  0.63967427     0.30400
C788        C  0.90550198  0.90511341  0.66066036    -0.36000
C789        C  0.91209415  0.88093603  0.65606666     0.16400
C790        C  0.92033566  0.87295080  0.63226218     0.22200
C791        C  0.92267508  0.88902114  0.61105198    -0.34100
C792        C  0.91646663  0.91346250  0.61578886     0.16300
O793        O  0.90365531  0.94441476  0.64044810    -0.26100
C794        C  0.90963414  0.95247716  0.61688795     0.06100
C795        C  0.91797116  0.93395970  0.60050729    -0.31000
O796        O  0.93046043  0.85088457  0.63348216    -0.22800
C797        C  0.92943237  0.84468134  0.65845620    -0.02800
C798        C  0.91717624  0.86261447  0.67316295    -0.17200
H799        H  0.90021284  0.91144341  0.67968900     0.20800
H800        H  0.93052079  0.88314882  0.59264106     0.19100
H801        H  0.92366863  0.93527312  0.58041525     0.19100
H802        H  0.91735509  0.86404760  0.69393350     0.14900
C803        C  0.81750220  0.06115046  0.70812139     0.30400
C804        C  0.84252268  0.06426153  0.69502315    -0.36000
C805        C  0.84917751  0.04650861  0.67694476     0.16400
C806        C  0.83277608  0.02660032  0.67273434     0.22200
C807        C  0.80794601  0.02330466  0.68610277    -0.34100
C808        C  0.80094001  0.04137470  0.70374174     0.16300
O809        O  0.80490649  0.07792964  0.72147157    -0.26100
C810        C  0.77989362  0.06899572  0.72584161     0.06100
C811        C  0.77647999  0.04603685  0.71556769    -0.31000
O812        O  0.84243621  0.01264655  0.65437699    -0.22800
C813        C  0.86501278  0.02400072  0.64629046    -0.02800
C814        C  0.87025005  0.04520815  0.65963405    -0.17200
H815        H  0.85491513  0.08033745  0.69737250     0.20800
H816        H  0.79424769  0.00844268  0.68188465     0.19100
H817        H  0.75743419  0.03619306  0.71325410     0.19100
H818        H  0.88728761  0.05758737  0.65720626     0.14900
C819        C  0.18048867  0.04790543  0.66585953     0.30400
C820        C  0.16883504  0.04541994  0.64127407    -0.36000
C821        C  0.14245011  0.03528867  0.64034785     0.16400
C822        C  0.12886847  0.02733377  0.66210301     0.22200
C823        C  0.14051624  0.02986377  0.68674320    -0.34100
C824        C  0.16666565  0.04061812  0.68773519     0.16300
O825        O  0.20254786  0.06066766  0.67115511    -0.26100
C826        C  0.20314425  0.06188047  0.69676559     0.06100
C827        C  0.18131339  0.04945364  0.70813398    -0.31000
O828        O  0.10433187  0.01851230  0.65681870    -0.22800
C829        C  0.10185265  0.02137792  0.63142914    -0.02800
C830        C  0.12491409  0.03186294  0.62014448    -0.17200
H831        H  0.17899119  0.05226909  0.62418448     0.20800
H832        H  0.12939250  0.02485098  0.70400980     0.19100
H833        H  0.17484457  0.05008646  0.72805195     0.19100
H834        H  0.12847024  0.03580916  0.59998644     0.14900
C835        C  0.03558722  0.91875610  0.62257013     0.30400
C836        C  0.03667847  0.89381236  0.61733051    -0.36000
C837        C  0.03564184  0.87806246  0.63882230     0.16400
C838        C  0.03316022  0.88626749  0.66367382     0.22200
C839        C  0.03253068  0.91111139  0.66891828    -0.34100
C840        C  0.03366895  0.92676552  0.64755332     0.16300
O841        O  0.03742707  0.93681324  0.60566388    -0.26100
C842        C  0.03636059  0.95666099  0.62010514     0.06100
C843        C  0.03404974  0.95129676  0.64625288    -0.31000
O844        O  0.02687198  0.86885403  0.68019779    -0.22800
C845        C  0.02500072  0.84891153  0.66604018    -0.02800
C846        C  0.03170499  0.85363857  0.64020773    -0.17200
H847        H  0.03755791  0.88711136  0.59782992     0.20800
H848        H  0.03004614  0.91780101  0.68830238     0.19100
H849        H  0.03466225  0.96377144  0.66219836     0.19100
H850        H  0.02798792  0.84187600  0.62400953     0.14900
C851        C  0.32231235  0.16903082  0.22032353     0.30400
C852        C  0.31831745  0.17868334  0.19553345    -0.36000
C853        C  0.34163468  0.18003325  0.17964293     0.16400
C854        C  0.36720712  0.17218851  0.18734698     0.22200
C855        C  0.37136919  0.16322292  0.21243562    -0.34100
C856        C  0.34808761  0.16230055  0.22853876     0.16300
O857        O  0.30268935  0.16174633  0.23622150    -0.26100
C858        C  0.31586327  0.15045802  0.25528027     0.06100
C859        C  0.34434869  0.15112974  0.25172147    -0.31000
O860        O  0.38579862  0.17392425  0.16875452    -0.22800
C861        C  0.37190327  0.18327844  0.14899388    -0.02800
C862        C  0.34444734  0.18755828  0.15480106    -0.17200
H863        H  0.29812586  0.18353542  0.18858073     0.20800
H864        H  0.39112500  0.15645526  0.21863125     0.19100
H865        H  0.35950075  0.14052458  0.26198230     0.19100
H866        H  0.32880486  0.19513678  0.14238466     0.14900
C867        C  0.32094492  0.30824922  0.07671770     0.30400
C868        C  0.31894037  0.28308400  0.07407488    -0.36000
C869        C  0.34328230  0.26995043  0.07740561     0.16400
C870        C  0.36785475  0.28060476  0.08389967     0.22200
C871        C  0.36982150  0.30583908  0.08690142    -0.34100
C872        C  0.34552501  0.31914074  0.08279565     0.16300
O873        O  0.30221117  0.32388000  0.06908961    -0.26100
C874        C  0.31464682  0.34533170  0.06971687     0.06100
C875        C  0.34160189  0.34336433  0.07884675    -0.31000
O876        O  0.38775276  0.26456715  0.08709308    -0.22800
C877        C  0.37592025  0.24340296  0.08178413    -0.02800
C878        C  0.34822618  0.24582391  0.07576451    -0.17200
H879        H  0.30001177  0.27445848  0.06823676     0.20800
H880        H  0.38919236  0.31458442  0.09102181     0.19100
H881        H  0.35752877  0.35698596  0.07768175     0.19100
H882        H  0.33333796  0.23157923  0.07278219     0.14900
C883        C  0.36414025  0.03628853  0.18701100     0.30400
C884        C  0.36783288  0.04576542  0.21176040    -0.36000
C885        C  0.34387532  0.04925283  0.22636822     0.16400
C886        C  0.31794127  0.04440311  0.21709709     0.22200
C887        C  0.31431391  0.03416866  0.19265608    -0.34100
C888        C  0.33830185  0.03026381  0.17824256     0.16300
O889        O  0.38351507  0.03259714  0.16960687    -0.26100
C890        C  0.36985289  0.02378989  0.14957406     0.06100
C891        C  0.34176731  0.02175456  0.15396295    -0.31000
O892        O  0.29836416  0.05348635  0.23180861    -0.22800
C893        C  0.31182640  0.06380993  0.25118068    -0.02800
C894        C  0.34021955  0.06116491  0.24888534    -0.17200
H895        H  0.38787600  0.05103803  0.21874188     0.20800
H896        H  0.29411622  0.03068325  0.18484926     0.19100
H897        H  0.32615714  0.01518124  0.14093669     0.19100
H898        H  0.35590182  0.07036058  0.25988307     0.14900
C899        C  0.36549743  0.92477607  0.08490495     0.30400
C900        C  0.36785374  0.89940756  0.08527633    -0.36000
C901        C  0.34304672  0.88617927  0.08467062     0.16400
C902        C  0.31772153  0.89714664  0.08356722     0.22200
C903        C  0.31537036  0.92239482  0.08387021    -0.34100
C904        C  0.34004174  0.93551765  0.08419284     0.16300
O905        O  0.38578376  0.94083434  0.08584829    -0.26100
C906        C  0.37302309  0.96216071  0.08513187     0.06100
C907        C  0.34459878  0.95971142  0.08418276    -0.31000
O908        O  0.29790612  0.88201387  0.07716465    -0.22800
C909        C  0.31034755  0.86083324  0.07386186    -0.02800
C910        C  0.33839429  0.86235372  0.07959970    -0.17200
H911        H  0.38764129  0.89058039  0.08495977     0.20800
H912        H  0.29566984  0.93126209  0.08227081     0.19100
H913        H  0.32936775  0.97385902  0.08543054     0.19100
H914        H  0.35396166  0.84925314  0.07465724     0.14900
C915        C  0.31720335  0.04270638  0.83199522     0.30400
C916        C  0.31307473  0.03449588  0.85733185    -0.36000
C917        C  0.33682456  0.03080224  0.87211674     0.16400
C918        C  0.36293824  0.03489216  0.86274148     0.22200
C919        C  0.36710564  0.04225944  0.83713154    -0.34100
C920        C  0.34333599  0.04579379  0.82226346     0.16300
O921        O  0.29815790  0.05201496  0.81680262    -0.26100
C922        C  0.31210803  0.06094319  0.79682707     0.06100
C923        C  0.34028448  0.05683962  0.79900714    -0.31000
O924        O  0.38212586  0.03150805  0.88040114    -0.22800
C925        C  0.36802872  0.02500596  0.90128448    -0.02800
C926        C  0.33984605  0.02409435  0.89717498    -0.17200
H927        H  0.29273176  0.03258805  0.86547808     0.20800
H928        H  0.38739765  0.04616006  0.82968541     0.19100
H929        H  0.35644244  0.06491327  0.78748331     0.19100
H930        H  0.32393209  0.01906468  0.91074607     0.14900
C931        C  0.34932183  0.88360079  0.97495227     0.30400
C932        C  0.37311752  0.89802242  0.97759615    -0.36000
C933        C  0.37023845  0.92278862  0.97186530     0.16400
C934        C  0.34572377  0.93236362  0.96352492     0.22200
C935        C  0.32215685  0.91796973  0.96058612    -0.34100
C936        C  0.32491535  0.89337095  0.96664969     0.16300
O937        O  0.34598194  0.86161431  0.98443960    -0.26100
C938        C  0.31900508  0.85713856  0.98276499     0.06100
C939        C  0.30519047  0.87616437  0.97082479    -0.31000
O940        O  0.34738094  0.95570067  0.95885617    -0.22800
C941        C  0.37319636  0.96159286  0.96456448    -0.02800
C942        C  0.38850328  0.94177047  0.97290832    -0.17200
H943        H  0.39208915  0.89071076  0.98510936     0.20800
H944        H  0.30263154  0.92568117  0.95504160     0.19100
H945        H  0.28323061  0.87906973  0.97052352     0.19100
H946        H  0.41015733  0.94114070  0.97745835     0.14900
C947        C  0.36521741  0.27920229  0.96567136     0.30400
C948        C  0.36908445  0.30441768  0.96569592    -0.36000
C949        C  0.34534985  0.31867446  0.96851970     0.16400
C950        C  0.31955383  0.30880447  0.97133585     0.22200
C951        C  0.31558296  0.28360112  0.97068630    -0.34100
C952        C  0.33932265  0.26937066  0.96791277     0.16300
O953        O  0.38453906  0.26255200  0.96310002    -0.26100
C954        C  0.37095900  0.24162376  0.96404887     0.06100
C955        C  0.34269149  0.24490583  0.96671242    -0.31000
O956        O  0.30119165  0.32491025  0.97874522    -0.22800
C957        C  0.31511021  0.34561545  0.98078518    -0.02800
C958        C  0.34265721  0.34271172  0.97377601    -0.17200
H959        H  0.38935433  0.31237102  0.96455078     0.20800
H960        H  0.29552118  0.27558022  0.97350269     0.19100
H961        H  0.32678243  0.23123777  0.96634225     0.19100
H962        H  0.35928264  0.35529624  0.97714713     0.14900
C963        C  0.34805172  0.18147827  0.86391432     0.30400
C964        C  0.32443002  0.18182740  0.84840948    -0.36000
C965        C  0.32642608  0.17017588  0.82457785     0.16400
C966        C  0.35032858  0.15939164  0.81640029     0.22200
C967        C  0.37406960  0.15919487  0.83186386    -0.34100
C968        C  0.37179904  0.17022880  0.85603990     0.16300
O969        O  0.34991207  0.18990651  0.88749204    -0.26100
C970        C  0.37497168  0.18364287  0.89520751     0.06100
C971        C  0.38960693  0.17121679  0.87644491    -0.31000
O972        O  0.34638426  0.14582688  0.79601481    -0.22800
C973        C  0.31956240  0.14746480  0.79102589    -0.02800
C974        C  0.30624964  0.16289697  0.80801107    -0.17200
H975        H  0.30527348  0.18930490  0.85521829     0.20800
H976        H  0.39234413  0.14947986  0.82624365     0.19100
H977        H  0.41025455  0.16413069  0.87761307     0.19100
H978        H  0.28433737  0.16485851  0.81069837     0.14900
C979        C  0.59130237  0.27616058  0.08458689     0.30400
C980        C  0.59406845  0.30097945  0.08982668    -0.36000
C981        C  0.62038311  0.31102874  0.08599530     0.16400
C982        C  0.64241491  0.29745684  0.07799543     0.22200
C983        C  0.63959589  0.27277072  0.07275421    -0.34100
C984        C  0.61328154  0.26295737  0.07584723     0.16300
O985        O  0.56920540  0.26260049  0.08824884    -0.26100
C986        C  0.57696226  0.24058424  0.08088914     0.06100
C987        C  0.60416463  0.23994010  0.07287637    -0.31000
O988        O  0.66340982  0.31086912  0.07074571    -0.22800
C989        C  0.65479413  0.33358996  0.07291572    -0.02800
C990        C  0.62850129  0.33460439  0.08374002    -0.17200
H991        H  0.57673592  0.31185684  0.09562608     0.20800
H992        H  0.65647373  0.26221108  0.06534265     0.19100
H993        H  0.61634197  0.22418484  0.06841854     0.19100
H994        H  0.61499064  0.35009605  0.08387218     0.14900
C995        C  0.60262789  0.15458478  0.22641202     0.30400
C996        C  0.57834288  0.15505214  0.21169433    -0.36000
C997        C  0.58006151  0.16632379  0.18743123     0.16400
C998        C  0.60388396  0.17704250  0.17865794     0.22200
C999        C  0.62814331  0.17655252  0.19335481    -0.34100
C1000       C  0.62659455  0.16481896  0.21739370     0.16300
O1001       O  0.60663488  0.14145873  0.24732039    -0.26100
C1002       C  0.63355794  0.14299886  0.25200661     0.06100
C1003       C  0.64691826  0.15764822  0.23399618    -0.31000
O1004       O  0.60114799  0.18626822  0.15532522    -0.22800
C1005       C  0.57539002  0.18104459  0.14873647    -0.02800
C1006       C  0.56127008  0.16847638  0.16792478    -0.17200
H1007       H  0.55983239  0.14598871  0.21809351     0.20800
H1008       H  0.64724784  0.18382717  0.18599581     0.19100
H1009       H  0.66882385  0.15950719  0.23112930     0.19100
H1010       H  0.54021606  0.16221571  0.16767502     0.14900
C1011       C  0.60758175  0.31445799  0.97537380     0.30400
C1012       C  0.58280666  0.30128652  0.97753668    -0.36000
C1013       C  0.58332792  0.27715754  0.96911254     0.16400
C1014       C  0.60656659  0.26697359  0.95873080     0.22200
C1015       C  0.63135657  0.28004991  0.95678979    -0.34100
C1016       C  0.63092291  0.30405215  0.96555007     0.16300
O1017       O  0.61260295  0.33572380  0.98576644    -0.26100
C1018       C  0.63965049  0.33928450  0.98301866     0.06100
C1019       C  0.65190098  0.32006892  0.97004544    -0.31000
O1020       O  0.60252237  0.24442662  0.95150337    -0.22800
C1021       C  0.57648728  0.23967256  0.95778687    -0.02800
C1022       C  0.56348420  0.25943013  0.96896703    -0.17200
H1023       H  0.56470039  0.30901515  0.98626804     0.20800
H1024       H  0.64995787  0.27179669  0.94966473     0.19100
H1025       H  0.67364053  0.31640457  0.96838542     0.19100
H1026       H  0.54228113  0.26087800  0.97495901     0.14900
C1027       C  0.59368945  0.17756646  0.85803985     0.30400
C1028       C  0.61507516  0.18086656  0.84020693    -0.36000
C1029       C  0.61688903  0.16385380  0.82039389     0.16400
C1030       C  0.59858867  0.14499470  0.81810846     0.22200
C1031       C  0.57685577  0.14186268  0.83579943    -0.34100
C1032       C  0.57539955  0.15865620  0.85597345     0.16300
O1033       O  0.59021356  0.19001084  0.87931888    -0.26100
C1034       C  0.56956812  0.17896648  0.89142242     0.06100
C1035       C  0.55944625  0.15923244  0.87776778    -0.31000
O1036       O  0.60734017  0.12853700  0.80182102    -0.22800
C1037       C  0.63177102  0.13658733  0.79366137    -0.02800
C1038       C  0.63826152  0.15893315  0.80419657    -0.17200
H1039       H  0.63051886  0.19471230  0.84277214     0.20800
H1040       H  0.56349545  0.12623948  0.83514253     0.19100
H1041       H  0.54339787  0.14674127  0.88344095     0.19100
H1042       H  0.65813355  0.16771179  0.80409930     0.14900
C1043       C  0.59267664  0.87861258  0.97155492     0.30400
C1044       C  0.56943042  0.89344690  0.97548500    -0.36000
C1045       C  0.57267370  0.91820572  0.96969889     0.16400
C1046       C  0.59701766  0.92720314  0.96015405     0.22200
C1047       C  0.61985824  0.91244377  0.95573909    -0.34100
C1048       C  0.61678261  0.88796761  0.96185108     0.16300
O1049       O  0.59627491  0.85684018  0.98144497    -0.26100
C1050       C  0.62312450  0.85230036  0.97872689     0.06100
C1051       C  0.63648782  0.87080249  0.96547089    -0.31000
O1052       O  0.59632399  0.95061557  0.95652850    -0.22800
C1053       C  0.57126962  0.95733118  0.96381313    -0.02800
C1054       C  0.55541733  0.93782972  0.97243179    -0.17200
H1055       H  0.55086058  0.88649482  0.98426802     0.20800
H1056       H  0.63931433  0.91988359  0.94944028     0.19100
H1057       H  0.65843990  0.87367704  0.96422925     0.19100
H1058       H  0.53427418  0.93791490  0.97879633     0.14900
C1059       C  0.65956692  0.06191874  0.86683836     0.30400
C1060       C  0.64614414  0.06647864  0.89021845    -0.36000
C1061       C  0.62675859  0.04924170  0.89804148     0.16400
C1062       C  0.62171074  0.02850831  0.88424891     0.22200
C1063       C  0.63531092  0.02382158  0.86101949    -0.34100
C1064       C  0.65420014  0.04137114  0.85282709     0.16300
O1065       O  0.67343473  0.07803095  0.85346736    -0.26100
C1066       C  0.67681525  0.06802710  0.83043034     0.06100
C1067       C  0.66585488  0.04485717  0.82921198    -0.31000
O1068       O  0.60261326  0.01493638  0.89492180    -0.22800
C1069       C  0.59487844  0.02737608  0.91548897    -0.02800
C1070       C  0.60910256  0.04894474  0.91843069    -0.17200
H1071       H  0.64911938  0.08317456  0.90057411     0.20800
H1072       H  0.63030403  0.00827552  0.84940143     0.19100
H1073       H  0.66222873  0.03427387  0.81210075     0.19100
H1074       H  0.60737729  0.06196434  0.93379214     0.14900
C1075       C  0.58815453  0.03422601  0.18542310     0.30400
C1076       C  0.58346107  0.04302260  0.21031220    -0.36000
C1077       C  0.60625216  0.04355345  0.22688811     0.16400
C1078       C  0.63224260  0.03691551  0.21923595     0.22200
C1079       C  0.63670410  0.02700216  0.19472542    -0.34100
C1080       C  0.61370700  0.02586663  0.17837284     0.16300
O1081       O  0.57003452  0.03315446  0.16645438    -0.26100
C1082       C  0.58405770  0.02358051  0.14704061     0.06100
C1083       C  0.61124225  0.01850432  0.15350384    -0.31000
O1084       O  0.65147631  0.04485400  0.23510368    -0.22800
C1085       C  0.63764585  0.05630698  0.25350930    -0.02800
C1086       C  0.60928913  0.05486879  0.24981219    -0.17200
H1087       H  0.56370368  0.05013681  0.21597054     0.20800
H1088       H  0.65701296  0.02203065  0.18821884     0.19100
H1089       H  0.62696085  0.01063093  0.14147277     0.19100
H1090       H  0.59373134  0.06536526  0.25953775     0.14900
C1091       C  0.61063474  0.93896099  0.07466778     0.30400
C1092       C  0.63575617  0.92668693  0.07230372    -0.36000
C1093       C  0.63457193  0.90134130  0.07384673     0.16400
C1094       C  0.61031179  0.88898625  0.07745830     0.22200
C1095       C  0.58520557  0.90129375  0.07995001    -0.34100
C1096       C  0.58633795  0.92659595  0.07808156     0.16300
O1097       O  0.60724160  0.96258537  0.07522127    -0.26100
C1098       C  0.58029033  0.96554622  0.07836983     0.06100
C1099       C  0.56624705  0.94368704  0.08021913    -0.31000
O1100       O  0.61304801  0.86558866  0.07362355    -0.22800
C1101       C  0.63934404  0.86259134  0.06705342    -0.02800
C1102       C  0.65384225  0.88435706  0.06789525    -0.17200
H1103       H  0.65482554  0.93622707  0.06883887     0.20800
H1104       H  0.56593514  0.89172790  0.08202957     0.19100
H1105       H  0.54487578  0.94083149  0.08506732     0.19100
H1106       H  0.67398923  0.88789752  0.05989937     0.14900
C1107       C  0.02997700  0.49571816  0.21040060     0.30400
C1108       C  0.03464555  0.49567304  0.23717229    -0.36000
C1109       C  0.03055645  0.47353595  0.25017378     0.16400
C1110       C  0.02238854  0.45288313  0.23769276     0.22200
C1111       C  0.01785932  0.45288430  0.21095213    -0.34100
C1112       C  0.02171687  0.47502843  0.19803210     0.16300
O1113       O  0.03416209  0.51397839  0.19422050    -0.26100
C1114       C  0.02788580  0.50509973  0.17111712     0.06100
C1115       C  0.02009247  0.48086575  0.17252391    -0.31000
O1116       O  0.01541725  0.43540653  0.25384173    -0.22800
C1117       C  0.01877606  0.44476456  0.27724133    -0.02800
C1118       C  0.02904694  0.46836086  0.27591333    -0.17200
H1119       H  0.04053853  0.51190349  0.24726641     0.20800
H1120       H  0.01079158  0.43691289  0.20103588     0.19100
H1121       H  0.01649440  0.46865247  0.15669251     0.19100
H1122       H  0.02995245  0.48130286  0.29141456     0.14900
C1123       C  0.13111939  0.47442974  0.10582873     0.30400
C1124       C  0.14490739  0.45207186  0.10573435    -0.36000
C1125       C  0.17084038  0.45168665  0.09377225     0.16400
C1126       C  0.18250122  0.47208638  0.08308264     0.22200
C1127       C  0.16870664  0.49443963  0.08316705    -0.34100
C1128       C  0.14252864  0.49468499  0.09455581     0.16300
O1129       O  0.10623947  0.47850988  0.11491027    -0.26100
C1130       C  0.10126638  0.50156672  0.10895761     0.06100
C1131       C  0.12314791  0.51255525  0.09615260    -0.31000
O1132       O  0.20461056  0.46710683  0.06948600    -0.22800
C1133       C  0.20742160  0.44312906  0.07102922    -0.02800
C1134       C  0.18697732  0.43266426  0.08631449    -0.17200
H1135       H  0.13542634  0.43582434  0.11330003     0.20800
H1136       H  0.17710243  0.51020390  0.07355923     0.19100
H1137       H  0.12466941  0.53101799  0.08934358     0.19100
H1138       H  0.18205286  0.41365963  0.08805526     0.14900
C1139       C  0.16813679  0.44881395  0.96053692     0.30400
C1140       C  0.14105491  0.44727735  0.95136746    -0.36000
C1141       C  0.12690106  0.46923642  0.94847565     0.16400
C1142       C  0.13832288  0.49130110  0.95447892     0.22200
C1143       C  0.16566516  0.49287841  0.96301355    -0.34100
C1144       C  0.18003073  0.47091110  0.96541269     0.16300
O1145       O  0.18322625  0.43053545  0.96895401    -0.26100
C1146       C  0.20553895  0.44085229  0.97894449     0.06100
C1147       C  0.20473710  0.46602193  0.97651816    -0.31000
O1148       O  0.12083117  0.50943320  0.95141424    -0.22800
C1149       C  0.09798065  0.49877981  0.94305891    -0.02800
C1150       C  0.10073309  0.47384904  0.94076491    -0.17200
H1151       H  0.13121745  0.43006405  0.94791347     0.20800
H1152       H  0.17481651  0.50995657  0.96831880     0.19100
H1153       H  0.21795820  0.47890056  0.98605800     0.19100
H1154       H  0.08553325  0.46098060  0.93425807     0.14900
C1155       C  0.02099474  0.44739958  0.81923836     0.30400
C1156       C  0.01635747  0.44889563  0.84584566    -0.36000
C1157       C  0.01913691  0.47185881  0.85679120     0.16400
C1158       C  0.02676872  0.49196983  0.84278845     0.22200
C1159       C  0.03144088  0.49047971  0.81608414    -0.34100
C1160       C  0.02822671  0.46748498  0.80499826     0.16300
O1161       O  0.01432460  0.42887266  0.80470712    -0.26100
C1162       C  0.01658325  0.43698710  0.78058309     0.06100
C1163       C  0.02635975  0.46077612  0.77979149    -0.31000
O1164       O  0.03065277  0.51111210  0.85752683    -0.22800
C1165       C  0.02473188  0.50331619  0.88126471    -0.02800
C1166       C  0.01729629  0.47901145  0.88172151    -0.17200
H1167       H  0.00988716  0.43337446  0.85708463     0.20800
H1168       H  0.03667195  0.50623331  0.80465325     0.19100
H1169       H  0.02610308  0.47290565  0.76336908     0.19100
H1170       H  0.01431995  0.46754708  0.89845356     0.14900
C1171       C  0.80754938  0.49605545  0.95245969     0.30400
C1172       C  0.78059895  0.49637770  0.96237729    -0.36000
C1173       C  0.76672894  0.47395544  0.96361788     0.16400
C1174       C  0.77872210  0.45260963  0.95615710     0.22200
C1175       C  0.80526871  0.45240158  0.94554962    -0.34100
C1176       C  0.81894836  0.47475484  0.94404007     0.16300
O1177       O  0.82474563  0.51465901  0.95031158    -0.26100
C1178       C  0.84738093  0.50503885  0.94017536     0.06100
C1179       C  0.84471993  0.48034970  0.93581118    -0.31000
O1180       O  0.76474860  0.43336988  0.96399337    -0.22800
C1181       C  0.74306550  0.44219503  0.97646287    -0.02800
C1182       C  0.74303027  0.46751966  0.97596976    -0.17200
H1183       H  0.77150544  0.51276855  0.96969913     0.20800
H1184       H  0.81524041  0.43572455  0.94021572     0.19100
H1185       H  0.85973418  0.46825843  0.92757806     0.19100
H1186       H  0.73041167  0.47927904  0.98757936     0.14900
C1187       C  0.91756449  0.45387130  0.81504881     0.30400
C1188       C  0.92153451  0.45586880  0.84170113    -0.36000
C1189       C  0.92074131  0.47922913  0.85194672     0.16400
C1190       C  0.91515058  0.49945145  0.83738642     0.22200
C1191       C  0.91146752  0.49753216  0.81043468    -0.34100
C1192       C  0.91309469  0.47399262  0.79996578     0.16300
O1193       O  0.92261348  0.43432568  0.80143074    -0.26100
C1194       C  0.92241220  0.44158210  0.77689321     0.06100
C1195       C  0.91543618  0.46616646  0.77501987    -0.31000
O1196       O  0.91239658  0.51908432  0.85184559    -0.22800
C1197       C  0.91742356  0.51136316  0.87589566    -0.02800
C1198       C  0.92292660  0.48672029  0.87671232    -0.17200
H1199       H  0.92612690  0.44027069  0.85357209     0.20800
H1200       H  0.90814533  0.51328129  0.79840779     0.19100
H1201       H  0.91773207  0.47764962  0.75821349     0.19100
H1202       H  0.92477676  0.47536516  0.89365768     0.14900
C1203       C  0.92708821  0.45670806  0.23800758     0.30400
C1204       C  0.93249289  0.45775118  0.21147006    -0.36000
C1205       C  0.92836749  0.48015919  0.19933830     0.16400
C1206       C  0.91887509  0.50015830  0.21216903     0.22200
C1207       C  0.91372764  0.49918935  0.23887830    -0.34100
C1208       C  0.91828710  0.47675354  0.25116475     0.16300
O1209       O  0.93345565  0.43858718  0.25346193    -0.26100
C1210       C  0.92919416  0.44683924  0.27718927     0.06100
C1211       C  0.91912639  0.47052555  0.27670963    -0.31000
O1212       O  0.91405489  0.51858602  0.19638997    -0.22800
C1213       C  0.92140157  0.51049564  0.17322960    -0.02800
C1214       C  0.93046766  0.48667868  0.17411974    -0.17200
H1215       H  0.94019232  0.44228746  0.20110523     0.20800
H1216       H  0.90695708  0.51488885  0.24939976     0.19100
H1217       H  0.91756777  0.48276425  0.29280081     0.19100
H1218       H  0.93498966  0.47501205  0.15803074     0.14900
C1219       C  0.79462009  0.44426448  0.08169617     0.30400
C1220       C  0.82300969  0.44642027  0.08558963    -0.36000
C1221       C  0.83226650  0.46886049  0.09445897     0.16400
C1222       C  0.81487323  0.48795676  0.09923280     0.22200
C1223       C  0.78641403  0.48565316  0.09574402    -0.34100
C1224       C  0.77710851  0.46313112  0.08696942     0.16300
O1225       O  0.78220701  0.42640311  0.06969259    -0.26100
C1226       C  0.75621462  0.43356680  0.06762591     0.06100
C1227       C  0.75192347  0.45625554  0.07829066    -0.31000
O1228       O  0.82814185  0.50750096  0.10682605    -0.22800
C1229       C  0.85432865  0.50073967  0.10673243    -0.02800
C1230       C  0.85808027  0.47690773  0.09942277    -0.17200
H1231       H  0.83704978  0.43198513  0.08088903     0.20800
H1232       H  0.77258696  0.50063310  0.09877237     0.19100
H1233       H  0.73393730  0.46753999  0.07626438     0.19100
H1234       H  0.87710572  0.46690735  0.09836230     0.14900
C1235       C  0.03767992  0.72328046  0.25436138     0.30400
C1236       C  0.03897508  0.70024787  0.24288810    -0.36000
C1237       C  0.03766733  0.69968557  0.21579832     0.16400
C1238       C  0.03566797  0.72044467  0.20121344     0.22200
C1239       C  0.03510690  0.74336543  0.21258114    -0.34100
C1240       C  0.03629328  0.74392929  0.23954691     0.16300
O1241       O  0.03248131  0.72761896  0.27887788    -0.26100
C1242       C  0.02747024  0.75135710  0.28001023     0.06100
C1243       C  0.03085246  0.76242039  0.25600730    -0.31000
O1244       O  0.03549992  0.71611203  0.17634559    -0.22800
C1245       C  0.03701735  0.69217223  0.17452223    -0.02800
C1246       C  0.03858366  0.68092399  0.19861461    -0.17200
H1247       H  0.03941533  0.68385878  0.25433080     0.20800
H1248       H  0.03287089  0.75965077  0.20115549     0.19100
H1249       H  0.02398125  0.78029741  0.25047883     0.19100
H1250       H  0.04237049  0.66205260  0.20278213     0.14900
C1251       C  0.17607883  0.74904376  0.09344130     0.30400
C1252       C  0.14940348  0.75054610  0.10351724    -0.36000
C1253       C  0.13484628  0.72870486  0.10555820     0.16400
C1254       C  0.14568147  0.70677284  0.09832354     0.22200
C1255       C  0.17276797  0.70513796  0.08930389    -0.34100
C1256       C  0.18740143  0.72699530  0.08734075     0.16300
O1257       O  0.19072814  0.76741250  0.08452530    -0.26100
C1258       C  0.21201608  0.75714075  0.07284947     0.06100
C1259       C  0.21128501  0.73196963  0.07485356    -0.31000
O1260       O  0.12774726  0.68885541  0.10033667    -0.22800
C1261       C  0.10519084  0.69952802  0.10910932    -0.02800
C1262       C  0.10854972  0.72421857  0.11289423    -0.17200
H1263       H  0.13993001  0.76773229  0.10772217     0.20800
H1264       H  0.18131275  0.68820607  0.08283480     0.19100
H1265       H  0.22365447  0.71924074  0.06420402     0.19100
H1266       H  0.09367723  0.73697897  0.12015293     0.14900
C1267       C  0.92280699  0.72152021  0.25210760     0.30400
C1268       C  0.92388293  0.69991381  0.23786047    -0.36000
C1269       C  0.91998104  0.70209708  0.21110886     0.16400
C1270       C  0.91463096  0.72400270  0.19947620     0.22200
C1271       C  0.91319993  0.74546226  0.21368804    -0.34100
C1272       C  0.91758242  0.74335135  0.24029226     0.16300
O1273       O  0.93137427  0.72423575  0.27601035    -0.26100
C1274       C  0.93211054  0.74813708  0.27972256     0.06100
C1275       C  0.92280489  0.76078117  0.25816317    -0.31000
O1276       O  0.91122615  0.72209834  0.17445394    -0.22800
C1277       C  0.91490457  0.69872593  0.16959738    -0.02800
C1278       C  0.92048444  0.68529418  0.19175246    -0.17200
H1279       H  0.92905280  0.68282102  0.24680301     0.20800
H1280       H  0.91009234  0.76280039  0.20442722     0.19100
H1281       H  0.92496505  0.77994106  0.25441113     0.19100
H1282       H  0.92277524  0.66592791  0.19354922     0.14900
C1283       C  0.82223447  0.73295257  0.09530420     0.30400
C1284       C  0.80963461  0.75570692  0.09373003    -0.36000
C1285       C  0.78255566  0.75602936  0.08458742     0.16400
C1286       C  0.76875748  0.73527343  0.07780514     0.22200
C1287       C  0.78133233  0.71246580  0.07950610    -0.34100
C1288       C  0.80864938  0.71221837  0.08807338     0.16300
O1289       O  0.84749254  0.72865354  0.10306047    -0.26100
C1290       C  0.85048902  0.70492260  0.10025440     0.06100
C1291       C  0.82700029  0.69369252  0.09083612    -0.31000
O1292       O  0.74561551  0.73995276  0.06573445    -0.22800
C1293       C  0.74437849  0.76400524  0.06453305    -0.02800
C1294       C  0.76674260  0.77492898  0.07641225    -0.17200
H1295       H  0.82063828  0.77213878  0.09822681     0.20800
H1296       H  0.77106373  0.69622753  0.07312078     0.19100
H1297       H  0.82354693  0.67462404  0.08772273     0.19100
H1298       H  0.77279530  0.79371743  0.07517848     0.14900
C1299       C  0.91588827  0.70561652  0.83741038     0.30400
C1300       C  0.91329397  0.70429520  0.81043660    -0.36000
C1301       C  0.91514212  0.72632820  0.79671682     0.16400
C1302       C  0.91923966  0.74811171  0.80873907     0.22200
C1303       C  0.92148790  0.74946116  0.83566657    -0.34100
C1304       C  0.92001235  0.72749049  0.84926210     0.16300
O1305       O  0.91371022  0.68750443  0.85413991    -0.26100
C1306       C  0.91716146  0.69786423  0.87703760     0.06100
C1307       C  0.92108645  0.72274065  0.87496930    -0.31000
O1308       O  0.92569532  0.76559237  0.79239151    -0.22800
C1309       C  0.92636554  0.75518075  0.76928502    -0.02800
C1310       C  0.91869032  0.73079246  0.77098305    -0.17200
H1311       H  0.91088212  0.68719003  0.80074226     0.20800
H1312       H  0.92555361  0.76637146  0.84528258     0.19100
H1313       H  0.92193330  0.73575544  0.89041246     0.19100
H1314       H  0.92154581  0.71720771  0.75634078     0.14900
C1315       C  0.77694935  0.75408084  0.95429578     0.30400
C1316       C  0.80446945  0.75502431  0.94620450    -0.36000
C1317       C  0.81824435  0.73280963  0.94445429     0.16400
C1318       C  0.80597583  0.71095635  0.95011297     0.22200
C1319       C  0.77810317  0.70995737  0.95735399    -0.34100
C1320       C  0.76421943  0.73225957  0.95902708     0.16300
O1321       O  0.76233237  0.77266609  0.96243609    -0.26100
C1322       C  0.73952549  0.76293156  0.97230854     0.06100
C1323       C  0.73947538  0.73775976  0.96984467    -0.31000
O1324       O  0.82330043  0.69251137  0.94825046    -0.22800
C1325       C  0.84699660  0.70283624  0.94132648    -0.02800
C1326       C  0.84480356  0.72778905  0.93851544    -0.17200
H1327       H  0.81498639  0.77202932  0.94310314     0.20800
H1328       H  0.76827079  0.69308641  0.96258407     0.19100
H1329       H  0.72583502  0.72516307  0.97948145     0.19100
H1330       H  0.86059167  0.74040508  0.93250442     0.14900
C1331       C  0.18862096  0.72758909  0.96804115     0.30400
C1332       C  0.17423673  0.70546588  0.96795681    -0.36000
C1333       C  0.14801536  0.70573531  0.95671362     0.16400
C1334       C  0.13719943  0.72625516  0.94556575     0.22200
C1335       C  0.15151643  0.74834959  0.94571406    -0.34100
C1336       C  0.17743918  0.74823647  0.95755166     0.16300
O1337       O  0.21082440  0.73217544  0.98162923    -0.26100
C1338       C  0.21403330  0.75614320  0.98042579     0.06100
C1339       C  0.19392068  0.76698780  0.96516687    -0.31000
O1340       O  0.11235467  0.72268184  0.93633360    -0.22800
C1341       C  0.10675327  0.69970780  0.94204173    -0.02800
C1342       C  0.12817423  0.68819635  0.95490487    -0.17200
H1343       H  0.18225061  0.68952322  0.97744642     0.20800
H1344       H  0.14242870  0.76477300  0.93825760     0.19100
H1345       H  0.18929232  0.78605129  0.96369530     0.19100
H1346       H  0.12919513  0.66961611  0.96141269     0.14900
C1347       C  0.03550856  0.72606550  0.84937225     0.30400
C1348       C  0.03585401  0.74839022  0.83628526    -0.36000
C1349       C  0.03419647  0.74746276  0.80929843     0.16400
C1350       C  0.03250253  0.72600426  0.79615216     0.22200
C1351       C  0.03248390  0.70366256  0.80927459    -0.34100
C1352       C  0.03361208  0.70459180  0.83628180     0.16300
O1353       O  0.03748597  0.72279290  0.87446125    -0.26100
C1354       C  0.03617387  0.69889992  0.87777379     0.06100
C1355       C  0.03372060  0.68662539  0.85457074    -0.31000
O1356       O  0.02576527  0.72924633  0.77178642    -0.22800
C1357       C  0.02269080  0.75308500  0.76897855    -0.02800
C1358       C  0.02866647  0.76528950  0.79174472    -0.17200
H1359       H  0.03630968  0.76534832  0.84651551     0.20800
H1360       H  0.03014422  0.68676034  0.79917426     0.19100
H1361       H  0.03436170  0.66733376  0.85147555     0.19100
H1362       H  0.02377604  0.78387716  0.79613417     0.14900
loop_ 
_geom_bond_atom_site_label_1 
_geom_bond_atom_site_label_2 
_geom_bond_distance 
_geom_bond_site_symmetry_2 
_ccdc_geom_bond_type 
C1            N2   1.361       .  A
C1            N6   1.347       .  A
C1         C1341   1.477       .  S
N2            C3   1.371       .  A
C3            N4   1.375       .  A
C3           C51   1.500       .  S
N4            C5   1.373       .  A
C5            N6   1.350       .  A
C5         C1354   1.476       .  S
C7            N8   1.365       .  A
C7           N12   1.346       .  A
C7         C1325   1.485       .  S
N8            C9   1.377       .  A
C9           N10   1.373       .  A
C9           C80   1.505       .  S
N10          C11   1.371       .  A
C11          N12   1.350       .  A
C11        C1306   1.475       .  S
C13          N14   1.374       .  A
C13          N18   1.351       .  A
C13        C1277   1.475       .  S
N14          C15   1.374       .  A
C15          N16   1.371       .  A
C15          C71   1.498       .  S
N16          C17   1.358       .  A
C17          N18   1.345       .  A
C17        C1290   1.472       .  S
C19          N20   1.348       .  A
C19          N24   1.372       .  A
C19        C1245   1.473       .  S
N20          C21   1.345       .  A
C21          N22   1.360       .  A
C21        C1261   1.471       .  S
N22          C23   1.371       .  A
C23          N24   1.376       .  A
C23          C60   1.500       .  S
C25          N26   1.353       .  A
C25          N30   1.371       .  A
C25        C1213   1.474       .  S
N26          C27   1.348       .  A
C27          N28   1.356       .  A
C27        C1229   1.464       .  S
N28          C29   1.365       .  A
C29          N30   1.373       .  A
C29          C77   1.491       .  S
C31          N32   1.349       .  A
C31          N36   1.364       .  A
C31        C1178   1.486       .  S
N32          C33   1.352       .  A
C33          N34   1.374       .  A
C33        C1197   1.485       .  S
N34          C35   1.377       .  A
C35          N36   1.374       .  A
C35          C74   1.509       .  S
C37          N38   1.362       .  A
C37          N42   1.348       .  A
C37        C1149   1.481       .  S
N38          C39   1.373       .  A
C39          N40   1.373       .  A
C39          C57   1.500       .  S
N40          C41   1.371       .  A
C41          N42   1.351       .  A
C41        C1165   1.473       .  S
C43          N44   1.374       .  A
C43          N48   1.353       .  A
C43        C1114   1.481       .  S
N44          C45   1.375       .  A
C45          N46   1.373       .  A
C45          C54   1.509       .  S
N46          C47   1.364       .  A
C47          N48   1.349       .  A
C47        C1130   1.483       .  S
O49         Zr61   2.448   1_556  S
O49          C51   1.290       .  A
O50         Zr87   2.494   1_455  S
O50          C51   1.300       .  A
O52         Zr64   2.450       .  S
O52          C54   1.290       .  A
O53         Zr88   2.504   1_455  S
O53          C54   1.302       .  A
O55         Zr64   2.439   1_556  S
O55          C57   1.288       .  A
O56         Zr87   2.502   1_455  S
O56          C57   1.301       .  A
O58         Zr61   2.459       .  S
O58          C60   1.292       .  A
O59         Zr88   2.480   1_455  S
O59          C60   1.297       .  A
Zr61         O62   2.436       .  S
Zr61         O63   2.438       .  S
Zr61         O67   2.383   1_554  S
Zr61         O68   2.376       .  S
Zr61         O91   2.368   1_455  S
Zr61         O93   2.378   1_454  S
O62         H105   0.990       .  S
O63         H104   0.990       .  S
O63         H108   0.990       .  S
Zr64         O65   2.437       .  S
Zr64         O66   2.434       .  S
Zr64         O68   2.371       .  S
Zr64         O67   2.375   1_554  S
Zr64         O92   2.376   1_454  S
Zr64         O94   2.369   1_455  S
O65         H106   0.990       .  S
O65         H109   0.990       .  S
O66          H99   0.990       .  S
O67         Zr87   2.415   1_455  S
O68         Zr88   2.408   1_455  S
O68          H95   0.964       .  S
O69         Zr81   2.423       .  S
O69          C71   1.285       .  A
O70         Zr88   2.503       .  S
O70          C71   1.301       .  A
O72         Zr84   2.458   1_556  S
O72          C74   1.292       .  A
O73         Zr87   2.500       .  S
O73          C74   1.301       .  A
O75         Zr84   2.448       .  S
O75          C77   1.291       .  A
O76         Zr88   2.469       .  S
O76          C77   1.295       .  A
O78         Zr81   2.436   1_556  S
O78          C80   1.286       .  A
O79         Zr87   2.509       .  S
O79          C80   1.303       .  A
Zr81         O82   2.439       .  S
Zr81         O83   2.435       .  S
Zr81         O89   2.378       .  S
Zr81         O90   2.372   1_554  S
Zr81         O93   2.365   1_554  S
Zr81         O91   2.373       .  S
O82         H102   0.990       .  S
O82         H107   0.990       .  S
O83         H103   0.990       .  S
Zr84         O85   2.434       .  S
Zr84         O86   2.436       .  S
Zr84         O90   2.374   1_554  S
Zr84         O89   2.374       .  S
Zr84         O94   2.374       .  S
Zr84         O92   2.367   1_554  S
O85         H101   0.990       .  S
O86         H100   0.990       .  S
O86         H110   0.990       .  S
Zr87         O90   2.403       .  S
Zr87         O92   2.405       .  S
Zr87         O93   2.408       .  S
Zr88         O89   2.416       .  S
Zr88         O91   2.401       .  S
Zr88         O94   2.397       .  S
O89          H97   0.964       .  S
O92          H96   0.966       .  S
O93          H98   0.965       .  S
C111        N112   1.364       .  A
C111        N116   1.349   1_545  A
C111       C1082   1.482       .  S
N112        C113   1.373       .  A
C113        N114   1.371       .  A
C113        C161   1.500       .  S
N114        C115   1.369   1_545  A
C115        N116   1.351       .  A
C115       C1098   1.472       .  S
C117        N118   1.351       .  A
C117        N122   1.339   1_545  A
C117       C1069   1.462       .  S
N118        C119   1.366       .  A
C119        N120   1.383   1_545  A
C119        C190   1.501       .  S
N120        C121   1.380       .  A
C121        N122   1.350       .  A
C121       C1053   1.484       .  S
C123        N124   1.355       .  A
C123        N128   1.373       .  A
C123       C1021   1.487       .  S
N124        C125   1.352       .  A
C125        N126   1.361       .  A
C125       C1034   1.483       .  S
N126        C127   1.370       .  A
C127        N128   1.374       .  A
C127        C181   1.499       .  S
C129        N130   1.353       .  A
C129        N134   1.368       .  A
C129        C986   1.469       .  S
N130        C131   1.349       .  A
C131        N132   1.360       .  A
C131       C1005   1.478       .  S
N132        C133   1.370       .  A
C133        N134   1.369       .  A
C133        C170   1.489       .  S
C135        N136   1.373       .  A
C135        N140   1.352       .  A
C135        C954   1.483       .  S
N136        C137   1.375       .  A
C137        N138   1.370       .  A
C137        C187   1.503       .  S
N138        C139   1.363       .  A
C139        N140   1.350       .  A
C139        C970   1.477       .  S
C141        N142   1.357       .  A
C141        N146   1.346   1_545  A
C141        C925   1.470       .  S
N142        C143   1.368       .  A
C143        N144   1.376   1_545  A
C143        C184   1.497       .  S
N144        C145   1.374       .  A
C145        N146   1.351       .  A
C145        C941   1.480       .  S
C147        N148   1.347   1_545  A
C147        N152   1.358       .  A
C147        C890   1.471       .  S
N148        C149   1.352       .  A
C149        N150   1.373       .  A
C149        C906   1.479       .  S
N150        C151   1.375   1_565  A
C151        N152   1.368       .  A
C151        C167   1.497       .  S
C153        N154   1.370       .  A
C153        N158   1.351       .  A
C153        C877   1.474       .  S
N154        C155   1.372       .  A
C155        N156   1.371       .  A
C155        C164   1.499       .  S
N156        C157   1.362       .  A
C157        N158   1.349       .  A
C157        C861   1.478       .  S
O159       Zr171   2.439       .  S
O159        C161   1.287       .  A
O160       Zr197   2.500       .  S
O160        C161   1.301       .  A
O162       Zr174   2.448       .  S
O162        C164   1.290       .  A
O163       Zr198   2.491       .  S
O163        C164   1.299       .  A
O165       Zr174   2.461       .  S
O165        C167   1.293       .  A
O166       Zr197   2.471       .  S
O166        C167   1.295       .  A
O168       Zr171   2.431       .  S
O168        C170   1.286       .  A
O169       Zr198   2.482       .  S
O169        C170   1.297       .  A
Zr171       O172   2.435       .  S
Zr171       O173   2.435       .  S
Zr171       O177   2.375       .  S
Zr171       O178   2.364       .  S
Zr171       O201   2.374       .  S
Zr171       O203   2.369       .  S
O172        H215   0.990       .  S
O173        H214   0.990       .  S
O173        H218   0.990       .  S
Zr174       O175   2.436       .  S
Zr174       O176   2.436       .  S
Zr174       O178   2.369       .  S
Zr174       O177   2.374       .  S
Zr174       O202   2.373       .  S
Zr174       O204   2.381       .  S
O175        H216   0.990       .  S
O175        H219   0.990       .  S
O176        H209   0.990       .  S
O177       Zr197   2.403       .  S
O178       Zr198   2.401       .  S
O178        H205   0.965       .  S
O179       Zr191   2.448       .  S
O179        C181   1.291       .  A
O180       Zr198   2.490   1_556  S
O180        C181   1.299       .  A
O182       Zr194   2.448       .  S
O182        C184   1.291       .  A
O183       Zr197   2.483   1_556  S
O183        C184   1.297       .  A
O185       Zr194   2.467       .  S
O185        C187   1.293       .  A
O186       Zr198   2.482   1_556  S
O186        C187   1.297       .  A
O188       Zr191   2.455       .  S
O188        C190   1.292       .  A
O189       Zr197   2.477   1_556  S
O189        C190   1.294       .  A
Zr191       O192   2.437       .  S
Zr191       O193   2.434       .  S
Zr191       O199   2.373       .  S
Zr191       O200   2.371       .  S
Zr191       O203   2.368   1_556  S
Zr191       O201   2.378   1_556  S
O192        H212   0.990       .  S
O192        H217   0.990       .  S
O193        H213   0.990       .  S
Zr194       O195   2.435       .  S
Zr194       O196   2.438       .  S
Zr194       O200   2.385       .  S
Zr194       O199   2.365       .  S
Zr194       O204   2.372   1_556  S
Zr194       O202   2.380   1_556  S
O195        H211   0.990       .  S
O196        H210   0.990   1_556  S
O196        H220   0.990   1_556  S
Zr197       O200   2.414   1_554  S
Zr197       O202   2.413       .  S
Zr197       O203   2.399       .  S
Zr198       O199   2.406   1_554  S
Zr198       O201   2.403       .  S
Zr198       O204   2.403       .  S
O199        H207   0.965       .  S
O202        H206   0.966       .  S
O203        H208   0.965       .  S
C221        N222   1.359       .  A
C221        N226   1.349   1_545  A
C221        C829   1.476       .  S
N222        C223   1.369       .  A
C223        N224   1.374   1_545  A
C223        C277   1.501       .  S
N224        C225   1.373       .  A
C225        N226   1.355       .  A
C225        C842   1.482       .  S
C227        N228   1.343   1_545  A
C227        N232   1.355       .  A
C227        C813   1.473       .  S
N228        C229   1.353       .  A
C229        N230   1.378       .  A
C229        C794   1.485       .  S
N230        C231   1.380   1_565  A
C231        N232   1.369       .  A
C231        C294   1.505       .  S
C233        N234   1.373       .  A
C233        N238   1.350       .  A
C233        C765   1.483       .  S
N234        C235   1.376       .  A
C235        N236   1.374       .  A
C235        C297   1.507       .  S
N236        C237   1.364       .  A
C237        N238   1.348       .  A
C237        C778   1.483       .  S
C239        N240   1.369       .  A
C239        N244   1.350       .  A
C239        C730   1.475       .  S
N240        C241   1.373       .  A
C241        N242   1.374       .  A
C241        C274   1.502       .  S
N242        C243   1.366       .  A
C243        N244   1.348       .  A
C243        C746   1.482       .  S
C245        N246   1.351       .  A
C245        N250   1.372       .  A
C245        C701   1.477       .  S
N246        C247   1.346       .  A
C247        N248   1.360       .  A
C247        C717   1.475       .  S
N248        C249   1.371       .  A
C249        N250   1.374       .  A
C249        C291   1.498       .  S
C251        N252   1.347   1_545  A
C251        N256   1.361       .  A
C251        C666   1.478       .  S
N252        C253   1.352       .  A
C253        N254   1.376       .  A
C253        C682   1.482       .  S
N254        C255   1.377   1_565  A
C255        N256   1.372       .  A
C255        C300   1.508       .  S
C257        N258   1.357       .  A
C257        N262   1.346   1_545  A
C257        C634   1.474       .  S
N258        C259   1.370       .  A
C259        N260   1.377   1_545  A
C259        C271   1.504       .  S
N260        C261   1.377       .  A
C261        N262   1.353       .  A
C261        C650   1.482       .  S
C263        N264   1.352       .  A
C263        N268   1.370       .  A
C263        C602   1.474       .  S
N264        C265   1.347       .  A
C265        N266   1.364       .  A
C265        C621   1.481       .  S
N266        C267   1.374       .  A
C267        N268   1.372       .  A
C267        C280   1.499       .  S
O269       Zr281   2.441       .  S
O269        C271   1.289       .  A
O270       Zr307   2.503   1_455  S
O270        C271   1.301       .  A
O272       Zr284   2.462       .  S
O272        C274   1.292       .  A
O273       Zr308   2.485   1_455  S
O273        C274   1.299       .  A
O275       Zr284   2.450       .  S
O275        C277   1.291       .  A
O276       Zr307   2.489   1_455  S
O276        C277   1.299       .  A
O278       Zr281   2.440       .  S
O278        C280   1.288       .  A
O279       Zr308   2.498   1_455  S
O279        C280   1.301       .  A
Zr281       O282   2.434       .  S
Zr281       O283   2.436       .  S
Zr281       O287   2.366       .  S
Zr281       O288   2.367       .  S
Zr281       O311   2.375   1_455  S
Zr281       O313   2.381   1_455  S
O282        H325   0.990       .  S
O283        H324   0.990       .  S
O283        H328   0.990       .  S
Zr284       O285   2.438       .  S
Zr284       O286   2.434       .  S
Zr284       O288   2.364       .  S
Zr284       O287   2.375       .  S
Zr284       O312   2.379   1_455  S
Zr284       O314   2.380   1_455  S
O285        H326   0.990       .  S
O285        H329   0.990       .  S
O286        H319   0.990       .  S
O287       Zr307   2.411   1_455  S
O288       Zr308   2.405   1_455  S
O288        H315   0.966       .  S
O289       Zr301   2.441       .  S
O289        C291   1.289       .  A
O290       Zr308   2.491       .  S
O290        C291   1.299       .  A
O292       Zr304   2.444       .  S
O292        C294   1.290       .  A
O293       Zr307   2.498       .  S
O293        C294   1.299       .  A
O295       Zr304   2.454       .  S
O295        C297   1.291       .  A
O296       Zr308   2.502       .  S
O296        C297   1.301       .  A
O298       Zr301   2.442       .  S
O298        C300   1.289       .  A
O299       Zr307   2.508       .  S
O299        C300   1.302       .  A
Zr301       O302   2.438       .  S
Zr301       O303   2.437       .  S
Zr301       O309   2.371       .  S
Zr301       O310   2.374       .  S
Zr301       O313   2.376       .  S
Zr301       O311   2.371       .  S
O302        H322   0.990       .  S
O302        H327   0.990       .  S
O303        H323   0.990       .  S
Zr304       O305   2.434       .  S
Zr304       O306   2.437       .  S
Zr304       O310   2.378       .  S
Zr304       O309   2.373       .  S
Zr304       O314   2.375       .  S
Zr304       O312   2.371       .  S
O305        H321   0.990       .  S
O306        H320   0.990       .  S
O306        H330   0.990       .  S
Zr307       O310   2.408       .  S
Zr307       O312   2.417       .  S
Zr307       O313   2.411       .  S
Zr308       O309   2.406       .  S
Zr308       O311   2.400       .  S
Zr308       O314   2.406       .  S
O309        H317   0.966       .  S
O312        H316   0.966       .  S
O313        H318   0.965       .  S
C331       C1117   1.484   1_655  S
C331        C332   1.392       .  A
C331        C336   1.416       .  A
C332        C333   1.394       .  A
C332        H351   1.087       .  S
C333       C1210   1.483       .  S
C333        C334   1.421       .  A
C334        C335   1.424       .  A
C334        C341   1.407       .  A
C335        C336   1.424       .  A
C335        C340   1.422       .  A
C336        C337   1.404   1_655  A
C337        C338   1.401       .  A
C337        H347   1.083       .  S
C338        C339   1.406   1_455  A
C338        H348   1.083       .  S
C339        C340   1.428       .  A
C339        C346   1.415       .  A
C340        C343   1.429       .  A
C341        C342   1.407       .  A
C341        H349   1.083       .  S
C342        C343   1.408       .  A
C342        H350   1.083       .  S
C343        C344   1.422       .  A
C344        C698   1.484       .  S
C344        C345   1.389       .  A
C345        C346   1.386       .  A
C345        H352   1.088       .  S
C346        C605   1.480   1_655  S
C353        C858   1.487       .  S
C353        C354   1.392       .  A
C353        C358   1.422       .  A
C354        C355   1.390       .  A
C354        H373   1.087       .  S
C355        C893   1.485       .  S
C355        C356   1.417       .  A
C356        C357   1.428       .  A
C356        C363   1.405       .  A
C357        C358   1.429       .  A
C357        C362   1.426       .  A
C358        C359   1.407       .  A
C359        C360   1.404       .  A
C359        H369   1.083       .  S
C360        C361   1.407       .  A
C360        H370   1.083       .  S
C361        C362   1.429       .  A
C361        C368   1.424       .  A
C362        C365   1.428       .  A
C363        C364   1.399       .  A
C363        H371   1.083       .  S
C364        C365   1.405       .  A
C364        H372   1.083       .  S
C365        C366   1.418       .  A
C366        C637   1.486       .  S
C366        C367   1.389       .  A
C367        C368   1.394       .  A
C367        H374   1.086       .  S
C368        C618   1.492       .  S
C375       C1133   1.490       .  S
C375        C376   1.390       .  A
C375        C380   1.424       .  A
C376        C377   1.391       .  A
C376        H395   1.087       .  S
C377       C1146   1.487   1_554  S
C377        C378   1.421       .  A
C378        C379   1.429       .  A
C378        C385   1.407   1_554  A
C379        C380   1.431       .  A
C379        C384   1.428       .  A
C380        C381   1.406       .  A
C381        C382   1.404       .  A
C381        H391   1.083       .  S
C382        C383   1.406       .  A
C382        H392   1.083       .  S
C383        C384   1.426       .  A
C383        C390   1.420       .  A
C384        C387   1.428       .  A
C385        C386   1.404       .  A
C385        H393   1.083       .  S
C386        C387   1.406   1_556  A
C386        H394   1.083       .  S
C387        C388   1.422       .  A
C388        C957   1.490   1_554  S
C388        C389   1.393       .  A
C389        C390   1.393       .  A
C389        H396   1.087       .  S
C390        C874   1.484       .  S
C397       C1085   1.487       .  S
C397        C398   1.393       .  A
C397        C402   1.416       .  A
C398        C399   1.390       .  A
C398        H417   1.087       .  S
C399       C1002   1.489       .  S
C399        C400   1.422       .  A
C400        C401   1.430       .  A
C400        C407   1.406       .  A
C401        C402   1.428       .  A
C401        C406   1.425       .  A
C402        C403   1.405       .  A
C403        C404   1.399       .  A
C403        H413   1.083       .  S
C404        C405   1.405       .  A
C404        H414   1.083       .  S
C405        C406   1.429       .  A
C405        C412   1.418       .  A
C406        C409   1.427       .  A
C407        C408   1.403       .  A
C407        H415   1.083       .  S
C408        C409   1.407       .  A
C408        H416   1.083       .  S
C409        C410   1.420       .  A
C410        C714   1.485       .  S
C410        C411   1.393       .  A
C411        C412   1.390       .  A
C411        H418   1.086       .  S
C412        C669   1.487       .  S
C419       C1242   1.486       .  S
C419        C420   1.390   1_455  A
C419        C424   1.420       .  A
C420        C421   1.392       .  A
C420        H439   1.087       .  S
C421       C1274   1.489       .  S
C421        C422   1.424       .  A
C422        C423   1.427       .  A
C422        C429   1.407       .  A
C423        C424   1.428   1_655  A
C423        C428   1.427       .  A
C424        C425   1.405       .  A
C425        C426   1.403       .  A
C425        H435   1.083       .  S
C426        C427   1.406       .  A
C426        H436   1.083       .  S
C427        C428   1.430   1_455  A
C427        C434   1.419       .  A
C428        C431   1.432       .  A
C429        C430   1.406       .  A
C429        H437   1.083       .  S
C430        C431   1.406       .  A
C430        H438   1.083       .  S
C431        C432   1.425       .  A
C432        C685   1.489       .  S
C432        C433   1.387       .  A
C433        C434   1.387   1_655  A
C433        H440   1.088       .  S
C434        C653   1.484       .  S
C441        C973   1.485       .  S
C441        C442   1.393       .  A
C441        C446   1.421       .  A
C442        C443   1.391       .  A
C442        H461   1.086       .  S
C443        C922   1.484       .  S
C443        C444   1.415       .  A
C444        C445   1.428       .  A
C444        C451   1.405       .  A
C445        C446   1.427       .  A
C445        C450   1.424       .  A
C446        C447   1.407       .  A
C447        C448   1.403       .  A
C447        H457   1.083       .  S
C448        C449   1.406       .  A
C448        H458   1.083       .  S
C449        C450   1.430       .  A
C449        C456   1.422       .  A
C450        C453   1.428       .  A
C451        C452   1.397       .  A
C451        H459   1.083       .  S
C452        C453   1.405       .  A
C452        H460   1.083       .  S
C453        C454   1.415       .  A
C454        C826   1.481       .  S
C454        C455   1.389       .  A
C455        C456   1.392       .  A
C455        H462   1.087       .  S
C456        C749   1.487       .  S
C463       C1194   1.490       .  S
C463        C464   1.391       .  A
C463        C468   1.427       .  A
C464        C465   1.389       .  A
C464        H483   1.088       .  S
C465       C1162   1.480   1_655  S
C465        C466   1.415       .  A
C466        C467   1.426       .  A
C466        C473   1.405   1_655  A
C467        C468   1.430       .  A
C467        C472   1.425       .  A
C468        C469   1.407       .  A
C469        C470   1.408       .  A
C469        H479   1.083       .  S
C470        C471   1.408       .  A
C470        H480   1.083       .  S
C471        C472   1.429       .  A
C471        C478   1.424       .  A
C472        C475   1.430       .  A
C473        C474   1.400       .  A
C473        H481   1.083       .  S
C474        C475   1.405   1_455  A
C474        H482   1.083       .  S
C475        C476   1.416       .  A
C476        C733   1.482   1_655  S
C476        C477   1.386       .  A
C477        C478   1.388       .  A
C477        H484   1.089       .  S
C478        C762   1.486       .  S
C485       C1258   1.484       .  S
C485        C486   1.391       .  A
C485        C490   1.416       .  A
C486        C487   1.392       .  A
C486        H505   1.087       .  S
C487       C1338   1.490   1_554  S
C487        C488   1.424       .  A
C488        C489   1.430       .  A
C488        C495   1.407   1_554  A
C489        C490   1.428       .  A
C489        C494   1.426       .  A
C490        C491   1.406       .  A
C491        C492   1.399       .  A
C491        H501   1.083       .  S
C492        C493   1.404       .  A
C492        H502   1.083       .  S
C493        C494   1.430       .  A
C493        C500   1.417       .  A
C494        C497   1.429       .  A
C495        C496   1.405       .  A
C495        H503   1.083       .  S
C496        C497   1.407   1_556  A
C496        H504   1.083       .  S
C497        C498   1.423       .  A
C498        C938   1.487   1_554  S
C498        C499   1.389       .  A
C499        C500   1.388       .  A
C499        H506   1.088       .  S
C500        C909   1.485       .  S
C507       C1181   1.491       .  S
C507        C508   1.394   1_556  A
C507        C512   1.428   1_556  A
C508        C509   1.388       .  A
C508        H527   1.087       .  S
C509       C1226   1.475       .  S
C509        C510   1.412       .  A
C510        C511   1.426       .  A
C510        C517   1.405       .  A
C511        C512   1.430       .  A
C511        C516   1.426       .  A
C512        C513   1.408   1_554  A
C513        C514   1.408       .  A
C513        H523   1.083       .  S
C514        C515   1.407   1_556  A
C514        H524   1.083       .  S
C515        C516   1.431       .  A
C515        C522   1.427       .  A
C516        C519   1.429       .  A
C517        C518   1.396       .  A
C517        H525   1.083       .  S
C518        C519   1.403       .  A
C518        H526   1.083       .  S
C519        C520   1.413       .  A
C520        C989   1.478       .  S
C520        C521   1.387       .  A
C521        C522   1.387       .  A
C521        H528   1.088       .  S
C522       C1018   1.491   1_554  S
C529       C1357   1.482   1_655  S
C529        C530   1.388       .  A
C529        C534   1.418   1_655  A
C530        C531   1.389       .  A
C530        H549   1.088       .  S
C531       C1309   1.487       .  S
C531        C532   1.424       .  A
C532        C533   1.430       .  A
C532        C539   1.406       .  A
C533        C534   1.428   1_655  A
C533        C538   1.426       .  A
C534        C535   1.405       .  A
C535        C536   1.402       .  A
C535        H545   1.083       .  S
C536        C537   1.405       .  A
C536        H546   1.083       .  S
C537        C538   1.429   1_455  A
C537        C544   1.420       .  A
C538        C541   1.428       .  A
C539        C540   1.406       .  A
C539        H547   1.083       .  S
C540        C541   1.408       .  A
C540        H548   1.083       .  S
C541        C542   1.425       .  A
C542        C797   1.490       .  S
C542        C543   1.392       .  A
C543        C544   1.390   1_655  A
C543        H550   1.086       .  S
C544        C845   1.490       .  S
C551       C1037   1.485       .  S
C551        C552   1.391       .  A
C551        C556   1.422       .  A
C552        C553   1.388       .  A
C552        H571   1.087       .  S
C553       C1066   1.473       .  S
C553        C554   1.409       .  A
C554        C555   1.425       .  A
C554        C561   1.404       .  A
C555        C556   1.428       .  A
C555        C560   1.422       .  A
C556        C557   1.406       .  A
C557        C558   1.404       .  A
C557        H567   1.083       .  S
C558        C559   1.407       .  A
C558        H568   1.083       .  S
C559        C560   1.427       .  A
C559        C566   1.420       .  A
C560        C563   1.427       .  A
C561        C562   1.394       .  A
C561        H569   1.083       .  S
C562        C563   1.404       .  A
C562        H570   1.083       .  S
C563        C564   1.412       .  A
C564        C810   1.478       .  S
C564        C565   1.388       .  A
C565        C566   1.393       .  A
C565        H572   1.087       .  S
C566        C781   1.483       .  S
C573       C1322   1.490       .  S
C573        C574   1.392   1_556  A
C573        C578   1.423       .  A
C574        C575   1.390       .  A
C574        H593   1.087       .  S
C575       C1293   1.479       .  S
C575        C576   1.415       .  A
C576        C577   1.426       .  A
C576        C583   1.407       .  A
C577        C578   1.430   1_554  A
C577        C582   1.424       .  A
C578        C579   1.406       .  A
C579        C580   1.405       .  A
C579        H589   1.083       .  S
C580        C581   1.407       .  A
C580        H590   1.083       .  S
C581        C582   1.426   1_556  A
C581        C588   1.422   1_556  A
C582        C585   1.428       .  A
C583        C584   1.400       .  A
C583        H591   1.083       .  S
C584        C585   1.404       .  A
C584        H592   1.083       .  S
C585        C586   1.416       .  A
C586       C1101   1.484       .  S
C586        C587   1.388       .  A
C587        C588   1.392       .  A
C587        H594   1.087       .  S
C588       C1050   1.485   1_554  S
C595        C600   1.378       .  A
C595        C596   1.410       .  A
C595        O601   1.328       .  A
C596        C597   1.412       .  A
C596        H607   1.082       .  S
C597        C606   1.366       .  A
C597        C598   1.378       .  A
C598        C599   1.402       .  A
C598        O604   1.319       .  A
C599        C600   1.402       .  A
C599        H608   1.082       .  S
C600        C603   1.357       .  A
O601        C602   1.336       .  A
C602        C603   1.391       .  A
C603        H609   1.083       .  S
O604        C605   1.333       .  A
C605        C606   1.400       .  A
C606        H610   1.083       .  S
C611        C616   1.378       .  A
C611        C612   1.409       .  A
C611        O617   1.317       .  A
C612        C613   1.405       .  A
C612        H623   1.082       .  S
C613        C622   1.372       .  A
C613        C614   1.378       .  A
C614        C615   1.409       .  A
C614        O620   1.320       .  A
C615        C616   1.407       .  A
C615        H624   1.082       .  S
C616        C619   1.373       .  A
O617        C618   1.337       .  A
C618        C619   1.396       .  A
C619        H625   1.082       .  S
O620        C621   1.334       .  A
C621        C622   1.393       .  A
C622        H626   1.082       .  S
C627        C632   1.379       .  A
C627        C628   1.405       .  A
C627        O633   1.319       .  A
C628        C629   1.404       .  A
C628        H639   1.082       .  S
C629        C638   1.367       .  A
C629        C630   1.378       .  A
C630        C631   1.410       .  A
C630        O636   1.319       .  A
C631        C632   1.406       .  A
C631        H640   1.082       .  S
C632        C635   1.371       .  A
O633        C634   1.331       .  A
C634        C635   1.393       .  A
C635        H641   1.082       .  S
O636        C637   1.337       .  A
C637        C638   1.393       .  A
C638        H642   1.082       .  S
C643        C648   1.377       .  A
C643        C644   1.408       .  A
C643        O649   1.317       .  A
C644        C645   1.405       .  A
C644        H655   1.082       .  S
C645        C654   1.370       .  A
C645        C646   1.377       .  A
C646        C647   1.411       .  A
C646        O652   1.319       .  A
C647        C648   1.407       .  A
C647        H656   1.082       .  S
C648        C651   1.375       .  A
O649        C650   1.335       .  A
C650        C651   1.394       .  A
C651        H657   1.082       .  S
O652        C653   1.338       .  A
C653        C654   1.396       .  A
C654        H658   1.083       .  S
C659        C664   1.378       .  A
C659        C660   1.409       .  A
C659        O665   1.320       .  A
C660        C661   1.407       .  A
C660        H671   1.082       .  S
C661        C670   1.371       .  A
C661        C662   1.378       .  A
C662        C663   1.406       .  A
C662        O668   1.316       .  A
C663        C664   1.403       .  A
C663        H672   1.082       .  S
C664        C667   1.369       .  A
O665        C666   1.334       .  A
C666        C667   1.391       .  A
C667        H673   1.082       .  S
O668        C669   1.335       .  A
C669        C670   1.395       .  A
C670        H674   1.082       .  S
C675        C680   1.377       .  A
C675        C676   1.409       .  A
C675        O681   1.320       .  A
C676        C677   1.407       .  A
C676        H687   1.082       .  S
C677        C686   1.370       .  A
C677        C678   1.375       .  A
C678        C679   1.414       .  A
C678        O684   1.323       .  A
C679        C680   1.410       .  A
C679        H688   1.082       .  S
C680        C683   1.376       .  A
O681        C682   1.335       .  A
C682        C683   1.396       .  A
C683        H689   1.082       .  S
O684        C685   1.340       .  A
C685        C686   1.399       .  A
C686        H690   1.083       .  S
C691        C696   1.377       .  A
C691        C692   1.404       .  A
C691        O697   1.321       .  A
C692        C693   1.404       .  A
C692        H703   1.082       .  S
C693        C702   1.358       .  A
C693        C694   1.377       .  A
C694        C695   1.410       .  A
C694        O700   1.329       .  A
C695        C696   1.413       .  A
C695        H704   1.082       .  S
C696        C699   1.368       .  A
O697        C698   1.335       .  A
C698        C699   1.403       .  A
C699        H705   1.083       .  S
O700        C701   1.336       .  A
C701        C702   1.393       .  A
C702        H706   1.083       .  S
C707        C712   1.378       .  A
C707        C708   1.409       .  A
C707        O713   1.317       .  A
C708        C709   1.405       .  A
C708        H719   1.082       .  S
C709        C718   1.370       .  A
C709        C710   1.378       .  A
C710        C711   1.406       .  A
C710        O716   1.318       .  A
C711        C712   1.405       .  A
C711        H720   1.082       .  S
C712        C715   1.368       .  A
O713        C714   1.337       .  A
C714        C715   1.394       .  A
C715        H721   1.083       .  S
O716        C717   1.333       .  A
C717        C718   1.392       .  A
C718        H722   1.082       .  S
C723        C728   1.377       .  A
C723        C724   1.409       .  A
C723        O729   1.326       .  A
C724        C725   1.410       .  A
C724        H735   1.082       .  S
C725        C734   1.366       .  A
C725        C726   1.377       .  A
C726        C727   1.405       .  A
C726        O732   1.320       .  A
C727        C728   1.404       .  A
C727        H736   1.082       .  S
C728        C731   1.360       .  A
O729        C730   1.335       .  A
C730        C731   1.394       .  A
C731        H737   1.083       .  S
O732        C733   1.334       .  A
C733        C734   1.401       .  A
C734        H738   1.083       .  S
C739        C744   1.378       .  A
C739        C740   1.409       .  A
C739        O745   1.319       .  A
C740        C741   1.407       .  A
C740        H751   1.082       .  S
C741        C750   1.373       .  A
C741        C742   1.378       .  A
C742        C743   1.409       .  A
C742        O748   1.317       .  A
C743        C744   1.405       .  A
C743        H752   1.082       .  S
C744        C747   1.373       .  A
O745        C746   1.334       .  A
C746        C747   1.393       .  A
C747        H753   1.082       .  S
O748        C749   1.336       .  A
C749        C750   1.396       .  A
C750        H754   1.082       .  S
C755        C760   1.376       .  A
C755        C756   1.406       .  A
C755        O761   1.322       .  A
C756        C757   1.406       .  A
C756        H767   1.082       .  S
C757        C766   1.362       .  A
C757        C758   1.377       .  A
C758        C759   1.411       .  A
C758        O764   1.330       .  A
C759        C760   1.413       .  A
C759        H768   1.082       .  S
C760        C763   1.369       .  A
O761        C762   1.336       .  A
C762        C763   1.403       .  A
C763        H769   1.083       .  S
O764        C765   1.337       .  A
C765        C766   1.395       .  A
C766        H770   1.083       .  S
C771        C776   1.378       .  A
C771        C772   1.405       .  A
C771        O777   1.316       .  A
C772        C773   1.403       .  A
C772        H783   1.082       .  S
C773        C782   1.368       .  A
C773        C774   1.378       .  A
C774        C775   1.411       .  A
C774        O780   1.319       .  A
C775        C776   1.407       .  A
C775        H784   1.082       .  S
C776        C779   1.375       .  A
O777        C778   1.333       .  A
C778        C779   1.395       .  A
C779        H785   1.082       .  S
O780        C781   1.337       .  A
C781        C782   1.393       .  A
C782        H786   1.083       .  S
C787        C792   1.377       .  A
C787        C788   1.404       .  A
C787        O793   1.312       .  A
C788        C789   1.400       .  A
C788        H799   1.082       .  S
C789        C798   1.367       .  A
C789        C790   1.376       .  A
C790        C791   1.416       .  A
C790        O796   1.320       .  A
C791        C792   1.411       .  A
C791        H800   1.082       .  S
C792        C795   1.383       .  A
O793        C794   1.332       .  A
C794        C795   1.398       .  A
C795        H801   1.082       .  S
O796        C797   1.341       .  A
C797        C798   1.392       .  A
C798        H802   1.083       .  S
C803        C808   1.379       .  A
C803        C804   1.406       .  A
C803        O809   1.316       .  A
C804        C805   1.403       .  A
C804        H815   1.082       .  S
C805        C814   1.367       .  A
C805        C806   1.379       .  A
C806        C807   1.406       .  A
C806        O812   1.319       .  A
C807        C808   1.404       .  A
C807        H816   1.082       .  S
C808        C811   1.366       .  A
O809        C810   1.333       .  A
C810        C811   1.392       .  A
C811        H817   1.083       .  S
O812        C813   1.332       .  A
C813        C814   1.391       .  A
C814        H818   1.082       .  S
C819        C824   1.379       .  A
C819        C820   1.406       .  A
C819        O825   1.315       .  A
C820        C821   1.403       .  A
C820        H831   1.082       .  S
C821        C830   1.368       .  A
C821        C822   1.379       .  A
C822        C823   1.409       .  A
C822        O828   1.320       .  A
C823        C824   1.407       .  A
C823        H832   1.082       .  S
C824        C827   1.371       .  A
O825        C826   1.333       .  A
C826        C827   1.395       .  A
C827        H833   1.082       .  S
O828        C829   1.333       .  A
C829        C830   1.391       .  A
C830        H834   1.082       .  S
C835        C840   1.378       .  A
C835        C836   1.411       .  A
C835        O841   1.330       .  A
C836        C837   1.413       .  A
C836        H847   1.082       .  S
C837        C846   1.367       .  A
C837        C838   1.377       .  A
C838        C839   1.405       .  A
C838        O844   1.322       .  A
C839        C840   1.405       .  A
C839        H848   1.082       .  S
C840        C843   1.360       .  A
O841        C842   1.336       .  A
C842        C843   1.393       .  A
C843        H849   1.083       .  S
O844        C845   1.334       .  A
C845        C846   1.404       .  A
C846        H850   1.083       .  S
C851        C856   1.378       .  A
C851        C852   1.405       .  A
C851        O857   1.324       .  A
C852        C853   1.406       .  A
C852        H863   1.082       .  S
C853        C862   1.361       .  A
C853        C854   1.379       .  A
C854        C855   1.407       .  A
C854        O860   1.327       .  A
C855        C856   1.410       .  A
C855        H864   1.082       .  S
C856        C859   1.363       .  A
O857        C858   1.334       .  A
C858        C859   1.401       .  A
C859        H865   1.083       .  S
O860        C861   1.333       .  A
C861        C862   1.392       .  A
C862        H866   1.083       .  S
C867        C872   1.378       .  A
C867        C868   1.405       .  A
C867        O873   1.319       .  A
C868        C869   1.403       .  A
C868        H879   1.082       .  S
C869        C878   1.362       .  A
C869        C870   1.377       .  A
C870        C871   1.410       .  A
C870        O876   1.326       .  A
C871        C872   1.411       .  A
C871        H880   1.082       .  S
C872        C875   1.370       .  A
O873        C874   1.333       .  A
C874        C875   1.401       .  A
C875        H881   1.083       .  S
O876        C877   1.336       .  A
C877        C878   1.392       .  A
C878        H882   1.083       .  S
C883        C888   1.380       .  A
C883        C884   1.404       .  A
C883        O889   1.324       .  A
C884        C885   1.406       .  A
C884        H895   1.082       .  S
C885        C894   1.359       .  A
C885        C886   1.379       .  A
C886        C887   1.405       .  A
C886        O892   1.324       .  A
C887        C888   1.406       .  A
C887        H896   1.082       .  S
C888        C891   1.360       .  A
O889        C890   1.331       .  A
C890        C891   1.392       .  A
C891        H897   1.083       .  S
O892        C893   1.333       .  A
C893        C894   1.397       .  A
C894        H898   1.083       .  S
C899        C904   1.377       .  A
C899        C900   1.410       .  A
C899        O905   1.329       .  A
C900        C901   1.413       .  A
C900        H911   1.082       .  S
C901        C910   1.366       .  A
C901        C902   1.378       .  A
C902        C903   1.404       .  A
C902        O908   1.321       .  A
C903        C904   1.404       .  A
C903        H912   1.082       .  S
C904        C907   1.358       .  A
O905        C906   1.336       .  A
C906        C907   1.392       .  A
C907        H913   1.083       .  S
O908        C909   1.334       .  A
C909        C910   1.402       .  A
C910        H914   1.083       .  S
C915        C920   1.380       .  A
C915        C916   1.404       .  A
C915        O921   1.322       .  A
C916        C917   1.404       .  A
C916        H927   1.082       .  S
C917        C926   1.360       .  A
C917        C918   1.380       .  A
C918        C919   1.404       .  A
C918        O924   1.323       .  A
C919        C920   1.406       .  A
C919        H928   1.082       .  S
C920        C923   1.359       .  A
O921        C922   1.332       .  A
C922        C923   1.397       .  A
C923        H929   1.083       .  S
O924        C925   1.331       .  A
C925        C926   1.391       .  A
C926        H930   1.083       .  S
C931        C936   1.376       .  A
C931        C932   1.414       .  A
C931        O937   1.320       .  A
C932        C933   1.409       .  A
C932        H943   1.082       .  S
C933        C942   1.377       .  A
C933        C934   1.377       .  A
C934        C935   1.406       .  A
C934        O940   1.316       .  A
C935        C936   1.403       .  A
C935        H944   1.082       .  S
C936        C939   1.368       .  A
O937        C938   1.340       .  A
C938        C939   1.394       .  A
C939        H945   1.083       .  S
O940        C941   1.333       .  A
C941        C942   1.396       .  A
C942        H946   1.082       .  S
C947        C952   1.378       .  A
C947        C948   1.409       .  A
C947        O953   1.327       .  A
C948        C949   1.410       .  A
C948        H959   1.082       .  S
C949        C958   1.367       .  A
C949        C950   1.377       .  A
C950        C951   1.409       .  A
C950        O956   1.324       .  A
C951        C952   1.409       .  A
C951        H960   1.082       .  S
C952        C955   1.367       .  A
O953        C954   1.334       .  A
C954        C955   1.397       .  A
C955        H961   1.083       .  S
O956        C957   1.336       .  A
C957        C958   1.400       .  A
C958        H962   1.083       .  S
C963        C968   1.379       .  A
C963        C964   1.406       .  A
C963        O969   1.317       .  A
C964        C965   1.404       .  A
C964        H975   1.082       .  S
C965        C974   1.369       .  A
C965        C966   1.378       .  A
C966        C967   1.409       .  A
C966        O972   1.317       .  A
C967        C968   1.405       .  A
C967        H976   1.082       .  S
C968        C971   1.372       .  A
O969        C970   1.332       .  A
C970        C971   1.394       .  A
C971        H977   1.082       .  S
O972        C973   1.336       .  A
C973        C974   1.393       .  A
C974        H978   1.083       .  S
C979        C984   1.377       .  A
C979        C980   1.409       .  A
C979        O985   1.324       .  A
C980        C981   1.410       .  A
C980        H991   1.082       .  S
C981        C990   1.368       .  A
C981        C982   1.377       .  A
C982        C983   1.402       .  A
C982        O988   1.316       .  A
C983        C984   1.400       .  A
C983        H992   1.082       .  S
C984        C987   1.359       .  A
O985        C986   1.336       .  A
C986        C987   1.390       .  A
C987        H993   1.083       .  S
O988        C989   1.333       .  A
C989        C990   1.400       .  A
C990        H994   1.083       .  S
C995       C1000   1.378       .  A
C995        C996   1.410       .  A
C995       O1001   1.318       .  A
C996        C997   1.406       .  A
C996       H1007   1.082       .  S
C997       C1006   1.371       .  A
C997        C998   1.379       .  A
C998        C999   1.408       .  A
C998       O1004   1.320       .  A
C999       C1000   1.406       .  A
C999       H1008   1.082       .  S
C1000      C1003   1.372       .  A
O1001      C1002   1.337       .  A
C1002      C1003   1.395       .  A
C1003      H1009   1.082       .  S
O1004      C1005   1.333       .  A
C1005      C1006   1.393       .  A
C1006      H1010   1.082       .  S
C1011      C1016   1.376       .  A
C1011      C1012   1.413       .  A
C1011      O1017   1.321       .  A
C1012      C1013   1.409       .  A
C1012      H1023   1.082       .  S
C1013      C1022   1.377       .  A
C1013      C1014   1.377       .  A
C1014      C1015   1.410       .  A
C1014      O1020   1.321       .  A
C1015      C1016   1.408       .  A
C1015      H1024   1.082       .  S
C1016      C1019   1.373       .  A
O1017      C1018   1.340       .  A
C1018      C1019   1.398       .  A
C1019      H1025   1.083       .  S
O1020      C1021   1.335       .  A
C1021      C1022   1.395       .  A
C1022      H1026   1.082       .  S
C1027      C1032   1.379       .  A
C1027      C1028   1.405       .  A
C1027      O1033   1.318       .  A
C1028      C1029   1.403       .  A
C1028      H1039   1.082       .  S
C1029      C1038   1.368       .  A
C1029      C1030   1.378       .  A
C1030      C1031   1.411       .  A
C1030      O1036   1.319       .  A
C1031      C1032   1.408       .  A
C1031      H1040   1.082       .  S
C1032      C1035   1.374       .  A
O1033      C1034   1.332       .  A
C1034      C1035   1.396       .  A
C1035      H1041   1.082       .  S
O1036      C1037   1.338       .  A
C1037      C1038   1.392       .  A
C1038      H1042   1.083       .  S
C1043      C1048   1.377       .  A
C1043      C1044   1.416       .  A
C1043      O1049   1.320       .  A
C1044      C1045   1.410       .  A
C1044      H1055   1.082       .  S
C1045      C1054   1.384       .  A
C1045      C1046   1.377       .  A
C1046      C1047   1.402       .  A
C1046      O1052   1.310       .  A
C1047      C1048   1.398       .  A
C1047      H1056   1.083       .  S
C1048      C1051   1.365       .  A
O1049      C1050   1.340       .  A
C1050      C1051   1.391       .  A
C1051      H1057   1.083       .  S
O1052      C1053   1.332       .  A
C1053      C1054   1.398       .  A
C1054      H1058   1.082       .  S
C1059      C1064   1.380       .  A
C1059      C1060   1.404       .  A
C1059      O1065   1.313       .  A
C1060      C1061   1.400       .  A
C1060      H1071   1.082       .  S
C1061      C1070   1.364       .  A
C1061      C1062   1.379       .  A
C1062      C1063   1.403       .  A
C1062      O1068   1.315       .  A
C1063      C1064   1.401       .  A
C1063      H1072   1.082       .  S
C1064      C1067   1.364       .  A
O1065      C1066   1.333       .  A
C1066      C1067   1.391       .  A
C1067      H1073   1.083       .  S
O1068      C1069   1.330       .  A
C1069      C1070   1.389       .  A
C1070      H1074   1.083       .  S
C1075      C1080   1.380       .  A
C1075      C1076   1.404       .  A
C1075      O1081   1.325       .  A
C1076      C1077   1.406       .  A
C1076      H1087   1.082       .  S
C1077      C1086   1.358       .  A
C1077      C1078   1.379       .  A
C1078      C1079   1.407       .  A
C1078      O1084   1.325       .  A
C1079      C1080   1.408       .  A
C1079      H1088   1.082       .  S
C1080      C1083   1.363       .  A
O1081      C1082   1.332       .  A
C1082      C1083   1.396       .  A
C1083      H1089   1.083       .  S
O1084      C1085   1.334       .  A
C1085      C1086   1.397       .  A
C1086      H1090   1.083       .  S
C1091      C1096   1.377       .  A
C1091      C1092   1.407       .  A
C1091      O1097   1.320       .  A
C1092      C1093   1.407       .  A
C1092      H1103   1.082       .  S
C1093      C1102   1.367       .  A
C1093      C1094   1.377       .  A
C1094      C1095   1.408       .  A
C1094      O1100   1.319       .  A
C1095      C1096   1.405       .  A
C1095      H1104   1.082       .  S
C1096      C1099   1.368       .  A
O1097      C1098   1.334       .  A
C1098      C1099   1.392       .  A
C1099      H1105   1.082       .  S
O1100      C1101   1.337       .  A
C1101      C1102   1.397       .  A
C1102      H1106   1.083       .  S
C1107      C1112   1.377       .  A
C1107      C1108   1.410       .  A
C1107      O1113   1.326       .  A
C1108      C1109   1.410       .  A
C1108      H1119   1.082       .  S
C1109      C1118   1.368       .  A
C1109      C1110   1.377       .  A
C1110      C1111   1.407       .  A
C1110      O1116   1.321       .  A
C1111      C1112   1.407       .  A
C1111      H1120   1.082       .  S
C1112      C1115   1.365       .  A
O1113      C1114   1.336       .  A
C1114      C1115   1.396       .  A
C1115      H1121   1.083       .  S
O1116      C1117   1.335       .  A
C1117      C1118   1.400       .  A
C1118      H1122   1.083       .  S
C1123      C1128   1.378       .  A
C1123      C1124   1.410       .  A
C1123      O1129   1.321       .  A
C1124      C1125   1.408       .  A
C1124      H1135   1.082       .  S
C1125      C1134   1.374       .  A
C1125      C1126   1.377       .  A
C1126      C1127   1.410       .  A
C1126      O1132   1.319       .  A
C1127      C1128   1.406       .  A
C1127      H1136   1.082       .  S
C1128      C1131   1.372       .  A
O1129      C1130   1.335       .  A
C1130      C1131   1.393       .  A
C1131      H1137   1.082       .  S
O1132      C1133   1.337       .  A
C1133      C1134   1.396       .  A
C1134      H1138   1.082       .  S
C1139      C1144   1.378       .  A
C1139      C1140   1.406       .  A
C1139      O1145   1.325       .  A
C1140      C1141   1.407       .  A
C1140      H1151   1.082       .  S
C1141      C1150   1.361       .  A
C1141      C1142   1.379       .  A
C1142      C1143   1.407       .  A
C1142      O1148   1.328       .  A
C1143      C1144   1.410       .  A
C1143      H1152   1.082       .  S
C1144      C1147   1.362       .  A
O1145      C1146   1.334       .  A
C1146      C1147   1.400       .  A
C1147      H1153   1.083       .  S
O1148      C1149   1.333       .  A
C1149      C1150   1.394       .  A
C1150      H1154   1.083       .  S
C1155      C1160   1.377       .  A
C1155      C1156   1.404       .  A
C1155      O1161   1.318       .  A
C1156      C1157   1.403       .  A
C1156      H1167   1.082       .  S
C1157      C1166   1.360       .  A
C1157      C1158   1.377       .  A
C1158      C1159   1.409       .  A
C1158      O1164   1.325       .  A
C1159      C1160   1.410       .  A
C1159      H1168   1.082       .  S
C1160      C1163   1.367       .  A
O1161      C1162   1.333       .  A
C1162      C1163   1.400       .  A
C1163      H1169   1.083       .  S
O1164      C1165   1.335       .  A
C1165      C1166   1.393       .  A
C1166      H1170   1.083       .  S
C1171      C1176   1.379       .  A
C1171      C1172   1.411       .  A
C1171      O1177   1.331       .  A
C1172      C1173   1.414       .  A
C1172      H1183   1.082       .  S
C1173      C1182   1.366       .  A
C1173      C1174   1.378       .  A
C1174      C1175   1.406       .  A
C1174      O1180   1.325       .  A
C1175      C1176   1.407       .  A
C1175      H1184   1.082       .  S
C1176      C1179   1.361       .  A
O1177      C1178   1.335       .  A
C1178      C1179   1.393       .  A
C1179      H1185   1.083       .  S
O1180      C1181   1.334       .  A
C1181      C1182   1.403       .  A
C1182      H1186   1.083       .  S
C1187      C1192   1.376       .  A
C1187      C1188   1.404       .  A
C1187      O1193   1.321       .  A
C1188      C1189   1.403       .  A
C1188      H1199   1.082       .  S
C1189      C1198   1.359       .  A
C1189      C1190   1.375       .  A
C1190      C1191   1.417       .  A
C1190      O1196   1.333       .  A
C1191      C1192   1.418       .  A
C1191      H1200   1.082       .  S
C1192      C1195   1.374       .  A
O1193      C1194   1.334       .  A
C1194      C1195   1.407       .  A
C1195      H1201   1.083       .  S
O1196      C1197   1.341       .  A
C1197      C1198   1.392       .  A
C1198      H1202   1.083       .  S
C1203      C1208   1.377       .  A
C1203      C1204   1.404       .  A
C1203      O1209   1.319       .  A
C1204      C1205   1.403       .  A
C1204      H1215   1.082       .  S
C1205      C1214   1.361       .  A
C1205      C1206   1.377       .  A
C1206      C1207   1.411       .  A
C1206      O1212   1.326       .  A
C1207      C1208   1.411       .  A
C1207      H1216   1.082       .  S
C1208      C1211   1.370       .  A
O1209      C1210   1.334       .  A
C1210      C1211   1.402       .  A
C1211      H1217   1.083       .  S
O1212      C1213   1.336       .  A
C1213      C1214   1.393       .  A
C1214      H1218   1.083       .  S
C1219      C1224   1.379       .  A
C1219      C1220   1.403       .  A
C1219      O1225   1.319       .  A
C1220      C1221   1.402       .  A
C1220      H1231   1.082       .  S
C1221      C1230   1.359       .  A
C1221      C1222   1.380       .  A
C1222      C1223   1.404       .  A
C1222      O1228   1.322       .  A
C1223      C1224   1.405       .  A
C1223      H1232   1.082       .  S
C1224      C1227   1.362       .  A
O1225      C1226   1.332       .  A
C1226      C1227   1.393       .  A
C1227      H1233   1.082       .  S
O1228      C1229   1.331       .  A
C1229      C1230   1.388       .  A
C1230      H1234   1.083       .  S
C1235      C1240   1.376       .  A
C1235      C1236   1.413       .  A
C1235      O1241   1.322       .  A
C1236      C1237   1.410       .  A
C1236      H1247   1.082       .  S
C1237      C1246   1.375       .  A
C1237      C1238   1.377       .  A
C1238      C1239   1.404       .  A
C1238      O1244   1.316       .  A
C1239      C1240   1.403       .  A
C1239      H1248   1.082       .  S
C1240      C1243   1.365       .  A
O1241      C1242   1.339       .  A
C1242      C1243   1.396       .  A
C1243      H1249   1.083       .  S
O1244      C1245   1.332       .  A
C1245      C1246   1.397       .  A
C1246      H1250   1.082       .  S
C1251      C1256   1.380       .  A
C1251      C1252   1.404       .  A
C1251      O1257   1.323       .  A
C1252      C1253   1.404       .  A
C1252      H1263   1.082       .  S
C1253      C1262   1.359       .  A
C1253      C1254   1.380       .  A
C1254      C1255   1.404       .  A
C1254      O1260   1.324       .  A
C1255      C1256   1.407       .  A
C1255      H1264   1.082       .  S
C1256      C1259   1.359       .  A
O1257      C1258   1.332       .  A
C1258      C1259   1.398       .  A
C1259      H1265   1.083       .  S
O1260      C1261   1.331       .  A
C1261      C1262   1.392       .  A
C1262      H1266   1.083       .  S
C1267      C1272   1.377       .  A
C1267      C1268   1.412       .  A
C1267      O1273   1.320       .  A
C1268      C1269   1.408       .  A
C1268      H1279   1.082       .  S
C1269      C1278   1.375       .  A
C1269      C1270   1.377       .  A
C1270      C1271   1.405       .  A
C1270      O1276   1.316       .  A
C1271      C1272   1.403       .  A
C1271      H1280   1.082       .  S
C1272      C1275   1.367       .  A
O1273      C1274   1.339       .  A
C1274      C1275   1.394       .  A
C1275      H1281   1.083       .  S
O1276      C1277   1.333       .  A
C1277      C1278   1.394       .  A
C1278      H1282   1.082       .  S
C1283      C1288   1.379       .  A
C1283      C1284   1.405       .  A
C1283      O1289   1.317       .  A
C1284      C1285   1.403       .  A
C1284      H1295   1.082       .  S
C1285      C1294   1.367       .  A
C1285      C1286   1.378       .  A
C1286      C1287   1.408       .  A
C1286      O1292   1.316       .  A
C1287      C1288   1.404       .  A
C1287      H1296   1.082       .  S
C1288      C1291   1.369       .  A
O1289      C1290   1.332       .  A
C1290      C1291   1.392       .  A
C1291      H1297   1.082       .  S
O1292      C1293   1.335       .  A
C1293      C1294   1.392       .  A
C1294      H1298   1.082       .  S
C1299      C1304   1.377       .  A
C1299      C1300   1.410       .  A
C1299      O1305   1.327       .  A
C1300      C1301   1.412       .  A
C1300      H1311   1.082       .  S
C1301      C1310   1.369       .  A
C1301      C1302   1.376       .  A
C1302      C1303   1.406       .  A
C1302      O1308   1.321       .  A
C1303      C1304   1.405       .  A
C1303      H1312   1.082       .  S
C1304      C1307   1.361       .  A
O1305      C1306   1.335       .  A
C1306      C1307   1.394       .  A
C1307      H1313   1.083       .  S
O1308      C1309   1.336       .  A
C1309      C1310   1.403       .  A
C1310      H1314   1.083       .  S
C1315      C1320   1.378       .  A
C1315      C1316   1.406       .  A
C1315      O1321   1.325       .  A
C1316      C1317   1.406       .  A
C1316      H1327   1.082       .  S
C1317      C1326   1.360       .  A
C1317      C1318   1.379       .  A
C1318      C1319   1.410       .  A
C1318      O1324   1.331       .  A
C1319      C1320   1.413       .  A
C1319      H1328   1.082       .  S
C1320      C1323   1.366       .  A
O1321      C1322   1.335       .  A
C1322      C1323   1.401       .  A
C1323      H1329   1.083       .  S
O1324      C1325   1.336       .  A
C1325      C1326   1.393       .  A
C1326      H1330   1.083       .  S
C1331      C1336   1.377       .  A
C1331      C1332   1.410       .  A
C1331      O1337   1.318       .  A
C1332      C1333   1.405       .  A
C1332      H1343   1.082       .  S
C1333      C1342   1.373       .  A
C1333      C1334   1.378       .  A
C1334      C1335   1.407       .  A
C1334      O1340   1.318       .  A
C1335      C1336   1.405       .  A
C1335      H1344   1.082       .  S
C1336      C1339   1.372       .  A
O1337      C1338   1.337       .  A
C1338      C1339   1.396       .  A
C1339      H1345   1.082       .  S
O1340      C1341   1.332       .  A
C1341      C1342   1.393       .  A
C1342      H1346   1.082       .  S
C1347      C1352   1.377       .  A
C1347      C1348   1.407       .  A
C1347      O1353   1.319       .  A
C1348      C1349   1.406       .  A
C1348      H1359   1.082       .  S
C1349      C1358   1.367       .  A
C1349      C1350   1.377       .  A
C1350      C1351   1.409       .  A
C1350      O1356   1.319       .  A
C1351      C1352   1.406       .  A
C1351      H1360   1.082       .  S
C1352      C1355   1.372       .  A
O1353      C1354   1.335       .  A
C1354      C1355   1.393       .  A
C1355      H1361   1.082       .  S
O1356      C1357   1.336       .  A
C1357      C1358   1.397       .  A
C1358      H1362   1.083       .  S
