geometry optimzed in LAMMPS
_audit_creation_date              2020-12-01 
_audit_creation_method            'lammps2cif' 
_symmetry_space_group_name_H-M    'P1' 
_symmetry_Int_Tables_number       1 
_symmetry_cell_setting            triclinic 
loop_ 
_symmetry_equiv_pos_as_xyz 
  x,y,z 
_cell_length_a                    59.90816854 
_cell_length_b                    60.994772239620254 
_cell_length_c                    60.38365193292557 
_cell_angle_alpha                 89.64468031838447 
_cell_angle_beta                  90.3698714266438 
_cell_angle_gamma                 90.12771027785668 
loop_ 
_atom_site_label 
_atom_site_type_symbol 
_atom_site_fract_x 
_atom_site_fract_y 
_atom_site_fract_z 
_atom_site_charge 
C1          C  0.79739653  0.82461669  0.01666852     0.79800
N2          N  0.80870200  0.84380439  0.01460291    -0.78500
C3          C  0.81483152  0.85151022  0.99445086     0.82300
N4          N  0.80988827  0.83958684  0.97612050    -0.78400
C5          C  0.79844220  0.82032032  0.97784416     0.82400
N6          N  0.79189681  0.81304454  0.99818959    -0.80100
C7          C  0.77125887  0.21995820  0.02675692     0.79800
N8          N  0.78962812  0.20692390  0.02718796    -0.78500
C9          C  0.79852793  0.19931596  0.00811915     0.82300
N10         N  0.78895363  0.20489508  0.98848249    -0.78400
C11         C  0.77086287  0.21826475  0.98768531     0.82400
N12         N  0.76185590  0.22564721  0.00691000    -0.80100
C13         C  0.18988621  0.85137085  0.01686284     0.79800
N14         N  0.20169197  0.84655793  0.99831962    -0.78500
C15         C  0.19516926  0.85461923  0.97818012     0.82300
N16         N  0.17661231  0.86740450  0.97674929    -0.78400
C17         C  0.16476004  0.87225908  0.99513591     0.82400
N18         N  0.17155256  0.86429806  0.01503367    -0.80100
C19         C  0.77791171  0.04771961  0.80914711     0.79800
N20         N  0.79380855  0.04711801  0.82525497    -0.78500
C21         C  0.80407496  0.02803394  0.83077542     0.82300
N22         N  0.79797442  0.00928167  0.82033755    -0.78400
C23         C  0.78231306  0.00968306  0.80394716     0.82400
N24         N  0.77242227  0.02899443  0.79821581    -0.80100
C25         C  0.96341630  0.21333693  0.79207604     0.79800
N26         N  0.96335703  0.20032882  0.81038372    -0.78500
C27         C  0.98230582  0.19065336  0.81789505     0.82300
N28         N  0.00170238  0.19417823  0.80686436    -0.78400
C29         C  0.00204010  0.20678272  0.78817887     0.82400
N30         N  0.98283997  0.21645221  0.78091617    -0.80100
C31         C  0.96261553  0.85081899  0.79653744     0.79800
N32         N  0.96273899  0.86626699  0.81257308    -0.78500
C33         C  0.98204963  0.87589637  0.81914544     0.82300
N34         N  0.00152949  0.86974164  0.80961775    -0.78400
C35         C  0.00162707  0.85447227  0.79327389     0.82400
N36         N  0.98209526  0.84493579  0.78688208    -0.80100
C37         C  0.17542955  0.04669071  0.80528221     0.79800
N38         N  0.18407242  0.02712436  0.79904279    -0.78500
C39         C  0.17575255  0.00820786  0.80770883     0.82300
N40         N  0.15894082  0.00901666  0.82258792    -0.78400
C41         C  0.15001568  0.02844478  0.82857416     0.82400
N42         N  0.15857413  0.04729060  0.82014976    -0.80100
C43         C  0.96794420  0.82309278  0.19028132     0.79800
N44         N  0.96720853  0.84046442  0.17616755    -0.78500
C45         C  0.98616096  0.84958971  0.16816735     0.82300
N46         N  0.00615507  0.84143922  0.17490930    -0.78400
C47         C  0.00722701  0.82407886  0.18908485     0.82400
N48         N  0.98804581  0.81461974  0.19648939    -0.80100
C49         C  0.77484265  0.05006993  0.19530814     0.79800
N50         N  0.76484487  0.03111016  0.20213978    -0.78500
C51         C  0.77214968  0.01144345  0.19443525     0.82300
N52         N  0.78934202  0.01080420  0.17993831    -0.78400
C53         C  0.79937363  0.02954501  0.17303196     0.82400
N54         N  0.79209587  0.04903856  0.18085489    -0.80100
C55         C  0.95996289  0.20420143  0.22626724     0.79800
N56         N  0.97994261  0.21060217  0.23502522    -0.78500
C57         C  0.99943604  0.20355898  0.22600789     0.82300
N58         N  0.99860710  0.19005411  0.20815524    -0.78400
C59         C  0.97881978  0.18351885  0.19933042     0.82400
N60         N  0.95965800  0.19089783  0.20833416    -0.80100
Zr61       Zr  0.25653594  0.30624269  0.28013865     2.17500
O62         O  0.28259958  0.30908106  0.31123673    -0.51700
O63         O  0.25439105  0.34580861  0.27857408    -0.74900
O64         O  0.29484517  0.31258833  0.26871260    -0.81700
O65         O  0.21099288  0.29189931  0.32226367    -0.83500
O66         O  0.29887173  0.30379175  0.23239345    -0.79100
O67         O  0.24394249  0.31001656  0.31789223    -0.90700
O68         O  0.22843929  0.35608376  0.25311467    -0.76700
O69         O  0.25086819  0.31715760  0.24264388    -0.86200
O70         O  0.21741533  0.31238522  0.27667908    -0.85900
O71         O  0.27014113  0.27601980  0.25883038    -0.72600
O72         O  0.23908058  0.27221405  0.29020297    -0.84800
Zr73       Zr  0.20669877  0.25947013  0.22611183     2.26400
Zr74       Zr  0.26361327  0.28686287  0.22097300     2.06300
Zr75       Zr  0.19976877  0.27819305  0.28580785     2.10000
Zr76       Zr  0.21169151  0.32283115  0.23910241     1.78800
O77         O  0.19358336  0.24853701  0.31224739    -0.93600
O78         O  0.21966092  0.34458727  0.20611037    -0.41400
O79         O  0.19326319  0.28913957  0.24816850    -0.78000
O80         O  0.22442338  0.29345852  0.21635224    -0.96700
O81         O  0.24563666  0.25294767  0.22998507    -0.90000
O82         O  0.21235853  0.24849260  0.26365989    -0.92800
C83         C  0.24368367  0.36032856  0.26741850     1.00900
C84         C  0.22739036  0.30348953  0.32957874     1.13800
C85         C  0.30640553  0.31089573  0.25100085     1.04600
O86         O  0.27169895  0.31467965  0.19303926    -0.95000
O87         O  0.25336323  0.27206575  0.18470906    -0.90700
O88         O  0.22081072  0.25325297  0.18915732    -0.83900
C89         C  0.23725548  0.26005053  0.17742720     1.11300
O90         O  0.28037068  0.23723279  0.29567787    -0.97000
Zr91       Zr  0.25139539  0.24255213  0.26758885     1.88900
O92         O  0.20934674  0.21977312  0.22609260    -0.73600
O93         O  0.29331686  0.26247566  0.20910269    -0.52900
O94         O  0.28458373  0.22654569  0.25116930    -0.97600
O95         O  0.24064563  0.21852207  0.29815484    -0.54800
O96         O  0.23728550  0.20990601  0.24979923    -0.74100
C97         C  0.22187268  0.20549653  0.23570147     0.98200
O98         O  0.17863859  0.26480579  0.19697216    -0.63000
O99         O  0.16795689  0.29946279  0.29853539    -0.57800
O100        O  0.16912285  0.25022288  0.23755461    -0.94400
O101        O  0.16471441  0.26127095  0.27322200    -0.92900
O102        O  0.18229048  0.34356892  0.25707339    -0.93200
O103        O  0.17924785  0.32578680  0.21476891    -0.92000
C104        C  0.15749400  0.25249162  0.25516913     1.17100
H105        H  0.21258237  0.32384784  0.28651234     0.33000
H106        H  0.22115590  0.29711803  0.20109285     0.43800
H107        H  0.20399258  0.23538637  0.26718524     0.37400
H108        H  0.28581505  0.27344779  0.26152877     0.33900
H109        H  0.21618266  0.35987156  0.21028195     0.25600
H110        H  0.30214637  0.27131948  0.19848644     0.31600
H111        H  0.28346348  0.21066554  0.25445533     0.37500
H112        H  0.18114667  0.35735632  0.24839760     0.31900
H113        H  0.17296779  0.30694521  0.31218999     0.30800
H114        H  0.17813611  0.25074806  0.31749822     0.32500
H115        H  0.22716421  0.21065184  0.29291341     0.31500
H116        H  0.18205824  0.31516058  0.20278375     0.35500
H117        H  0.16692976  0.27403399  0.20366463     0.28200
H118        H  0.29066992  0.32312876  0.30914656     0.32400
H119        H  0.28445366  0.22152506  0.29503994     0.35300
H120        H  0.16636245  0.31139483  0.28745901     0.27900
H121        H  0.18561529  0.27470812  0.18594136     0.40800
H122        H  0.27503308  0.32813450  0.20154146     0.30800
H123        H  0.23611780  0.34429343  0.20484154     0.38400
H124        H  0.23509816  0.22855301  0.30970114     0.30300
H125        H  0.30318823  0.26077597  0.22221109     0.30400
H126        H  0.29389921  0.29751853  0.30893620     0.30600
C127        C  0.18439073  0.04921039  0.19976005     0.79800
N128        N  0.19479646  0.03052452  0.20668211    -0.78500
C129        C  0.18830233  0.01071931  0.19845954     0.82300
N130        N  0.17142448  0.00981197  0.18331156    -0.78400
C131        C  0.16130798  0.02836865  0.17596237     0.82400
N132        N  0.16782430  0.04787993  0.18439450    -0.80100
Zr133      Zr  0.26620984  0.75638609  0.27298242     2.17500
O134        O  0.29467983  0.72810704  0.26951143    -0.51700
O135        O  0.26189824  0.75156949  0.31285259    -0.74900
O136        O  0.30291678  0.76945673  0.28406589    -0.81700
O137        O  0.22122151  0.71441569  0.25742944    -0.83500
O138        O  0.30752137  0.80473842  0.27250428    -0.79100
O139        O  0.25501374  0.71844592  0.27433835    -0.90700
O140        O  0.23336704  0.77325154  0.32389957    -0.76700
O141        O  0.26068833  0.79287950  0.28527645    -0.86200
O142        O  0.22733017  0.75875902  0.28015181    -0.85900
O143        O  0.27873324  0.77910408  0.24287396    -0.72600
O144        O  0.24786785  0.74820363  0.23844836    -0.84800
Zr145      Zr  0.21470245  0.81121388  0.22879788     2.26400
Zr146      Zr  0.27237427  0.81586819  0.25508706     2.06300
Zr147      Zr  0.20879234  0.75116387  0.24589575     2.10000
Zr148      Zr  0.22172583  0.79527861  0.29227383     1.78800
O149        O  0.19943711  0.72703277  0.21522618    -0.93600
O150        O  0.23594922  0.82118704  0.31951240    -0.41400
O151        O  0.20234991  0.78783369  0.25833787    -0.78000
O152        O  0.23337390  0.81940232  0.26305792    -0.96700
O153        O  0.25339602  0.80872745  0.22095567    -0.90000
O154        O  0.22024524  0.77472830  0.21631469    -0.92800
C155        C  0.24831901  0.75862640  0.32755808     1.00900
C156        C  0.23853308  0.70676527  0.26762364     1.13800
C157        C  0.31451814  0.78704354  0.28189409     1.04600
O158        O  0.28197975  0.84357172  0.28237404    -0.95000
O159        O  0.26150254  0.85214867  0.24139909    -0.90700
O160        O  0.22833356  0.84815892  0.22333649    -0.83900
C161        C  0.24493075  0.85970890  0.23007539     1.11300
O162        O  0.28836484  0.74538457  0.20258280    -0.97000
Zr163      Zr  0.25904831  0.77226020  0.20887666     1.88900
O164        O  0.21543274  0.81367283  0.18868706    -0.73600
O165        O  0.30209817  0.82634189  0.22974614    -0.52900
O166        O  0.29121427  0.79041980  0.19238212    -0.97600
O167        O  0.24772082  0.74390436  0.18277386    -0.54800
O168        O  0.24368870  0.79188350  0.17696811    -0.74100
C169        C  0.22777718  0.80559094  0.17350187     0.98200
O170        O  0.18683705  0.83939413  0.23624861    -0.63000
O171        O  0.17949395  0.73633355  0.26953170    -0.57800
O172        O  0.17733731  0.79946937  0.21930929    -0.94400
O173        O  0.17286276  0.76439340  0.23162964    -0.92900
O174        O  0.18653029  0.78173752  0.30703213    -0.93200
O175        O  0.19493023  0.82433656  0.29937820    -0.92000
C176        C  0.16549467  0.78226463  0.22278616     1.17100
H177        H  0.22269544  0.74817405  0.29117006     0.33000
H178        H  0.23014940  0.83426226  0.26739217     0.43800
H179        H  0.21141217  0.77183186  0.20320918     0.37400
H180        H  0.29445468  0.77672956  0.24039250     0.33900
H181        H  0.22706168  0.81828904  0.33299129     0.25600
H182        H  0.31104972  0.83727778  0.23800551     0.31600
H183        H  0.28925187  0.78849049  0.17622128     0.37500
H184        H  0.18770120  0.78409398  0.32320164     0.31900
H185        H  0.17375226  0.72337803  0.26148478     0.30800
H186        H  0.18549502  0.71960304  0.21983807     0.32500
H187        H  0.25327153  0.74906015  0.16822977     0.31500
H188        H  0.18412450  0.82345093  0.28693535     0.35500
H189        H  0.17492342  0.83189431  0.24471292     0.28200
H190        H  0.30191705  0.72699745  0.28426963     0.32400
H191        H  0.29254838  0.74705099  0.18682406     0.35300
H192        H  0.18730342  0.73014082  0.28263500     0.27900
H193        H  0.19385653  0.84921430  0.24729582     0.40800
H194        H  0.27057481  0.84186218  0.29404558     0.30800
H195        H  0.25109714  0.81583697  0.32332189     0.38400
H196        H  0.23128982  0.74514301  0.18155411     0.30300
H197        H  0.31188394  0.81331940  0.22887050     0.30400
H198        H  0.30620387  0.73445410  0.25967533     0.30600
Zr199      Zr  0.75825783  0.26091493  0.23138157     2.17500
O200        O  0.78615009  0.26467125  0.20233635    -0.51700
O201        O  0.75670717  0.22107704  0.23100061    -0.74900
O202        O  0.79571944  0.25325812  0.24485487    -0.81700
O203        O  0.71143514  0.27048351  0.18865509    -0.83500
O204        O  0.79902129  0.26525926  0.28037729    -0.79100
O205        O  0.74604864  0.25589415  0.19348313    -0.90700
O206        O  0.73020169  0.21028720  0.25545296    -0.76700
O207        O  0.75286414  0.25051832  0.26900120    -0.86200
O208        O  0.71952029  0.25276635  0.23444422    -0.85900
O209        O  0.77007115  0.29212240  0.25259719    -0.72600
O210        O  0.73905183  0.29371028  0.22035061    -0.84800
Zr211      Zr  0.70606049  0.30659098  0.28363187     2.26400
Zr212      Zr  0.76362574  0.28174696  0.29043092     2.06300
Zr213      Zr  0.70019093  0.28567105  0.22440770     2.10000
Zr214      Zr  0.71411329  0.24277253  0.27206679     1.78800
O215        O  0.69258819  0.31358621  0.19637261    -0.93600
O216        O  0.72641006  0.22031694  0.30332182    -0.41400
O217        O  0.69401050  0.27546904  0.26239146    -0.78000
O218        O  0.72479209  0.27338193  0.29443149    -0.96700
O219        O  0.74464651  0.31479798  0.28015870    -0.90000
O220        O  0.71111295  0.31689102  0.24589496    -0.92800
C221        C  0.74534386  0.20625551  0.24109603     1.00900
C222        C  0.72878543  0.26029559  0.18159064     1.13800
C223        C  0.80676317  0.25638758  0.26282785     1.04600
O224        O  0.77075507  0.25392613  0.31870131    -0.95000
O225        O  0.75341616  0.29759406  0.32588619    -0.90700
O226        O  0.71761396  0.30935048  0.32214905    -0.83900
C227        C  0.73534565  0.30574075  0.33363479     1.11300
O228        O  0.77992546  0.32816353  0.21541141    -0.97000
Zr229      Zr  0.74992572  0.32449571  0.24230935     1.88900
O230        O  0.70803571  0.34645063  0.28277965    -0.73600
O231        O  0.79353940  0.30561646  0.30349950    -0.52900
O232        O  0.78099328  0.34583340  0.25709136    -0.97600
O233        O  0.73698723  0.34583705  0.21044635    -0.54800
O234        O  0.73521216  0.35723181  0.25906366    -0.74100
C235        C  0.71984230  0.36120418  0.27311827     0.98200
O236        O  0.67986026  0.31086996  0.31405239    -0.63000
O237        O  0.66963821  0.26201031  0.21246939    -0.57800
O238        O  0.66742219  0.30919089  0.27166841    -0.94400
O239        O  0.66415177  0.30049873  0.23524806    -0.92900
O240        O  0.68277676  0.22246706  0.25648525    -0.93200
O241        O  0.68459725  0.23737476  0.29913124    -0.92000
C242        C  0.65607884  0.30691596  0.25375841     1.17100
H243        H  0.71523472  0.24090198  0.22477105     0.33000
H244        H  0.72154559  0.26964681  0.30963139     0.43800
H245        H  0.70202102  0.32942399  0.24205187     0.37400
H246        H  0.78572780  0.29500940  0.25024329     0.33900
H247        H  0.71913785  0.20591207  0.30098477     0.25600
H248        H  0.80447080  0.29572675  0.31077715     0.31600
H249        H  0.78015569  0.34380430  0.27334266     0.37500
H250        H  0.67291876  0.23386263  0.25001898     0.31900
H251        H  0.66403147  0.26883602  0.19859740     0.30800
H252        H  0.67658146  0.31172695  0.19263862     0.32500
H253        H  0.74358539  0.36058143  0.21254447     0.31500
H254        H  0.68275795  0.25188039  0.30615944     0.35500
H255        H  0.67029004  0.32358415  0.31025619     0.28200
H256        H  0.79443643  0.25063980  0.20227484     0.32400
H257        H  0.78248744  0.34411608  0.21360917     0.35300
H258        H  0.67683350  0.24825463  0.20767170     0.27900
H259        H  0.66992563  0.29790457  0.31344180     0.40800
H260        H  0.75690800  0.25322646  0.32754442     0.30800
H261        H  0.74243690  0.21757211  0.30058349     0.38400
H262        H  0.72081442  0.34802921  0.21277359     0.30300
H263        H  0.80108071  0.31083259  0.28991947     0.30400
H264        H  0.79697149  0.27567882  0.20787511     0.30600
Zr265      Zr  0.71148626  0.75277792  0.27521809     2.17500
O266        O  0.68209168  0.72535677  0.27092987    -0.51700
O267        O  0.71136649  0.75362307  0.31533386    -0.74900
O268        O  0.72497795  0.71612985  0.28370050    -0.81700
O269        O  0.66948188  0.79924978  0.26679482    -0.83500
O270        O  0.75901683  0.71140693  0.26789710    -0.79100
O271        O  0.67387906  0.76514787  0.28187528    -0.90700
O272        O  0.73575349  0.78005336  0.32619232    -0.76700
O273        O  0.74992402  0.75667601  0.28434881    -0.86200
O274        O  0.71602941  0.79047689  0.28437535    -0.85900
O275        O  0.73110382  0.74166146  0.24265061    -0.72600
O276        O  0.69984796  0.77328348  0.24313341    -0.84800
Zr277      Zr  0.76406453  0.80455945  0.22883369     2.26400
Zr278      Zr  0.76982204  0.74666643  0.25165583     2.06300
Zr279      Zr  0.70561164  0.81106378  0.25206031     2.10000
Zr280      Zr  0.75443883  0.79425546  0.29343819     1.78800
O281        O  0.67916106  0.82122018  0.22299471    -0.93600
O282        O  0.78367064  0.77895958  0.31709762    -0.41400
O283        O  0.74424987  0.81540915  0.26137209    -0.78000
O284        O  0.77538889  0.78436419  0.26129583    -0.96700
O285        O  0.75896105  0.76708710  0.21949434    -0.90000
O286        O  0.72554382  0.80079261  0.21965934    -0.92800
C287        C  0.72096382  0.76532435  0.33019475     1.00900
C288        C  0.66224279  0.78219485  0.27719862     1.13800
C289        C  0.74205691  0.70444893  0.27888798     1.04600
O290        O  0.79965404  0.73457827  0.27636987    -0.95000
O291        O  0.80599241  0.75792946  0.23677468    -0.90700
O292        O  0.80082219  0.79091467  0.21973606    -0.83900
C293        C  0.81288703  0.77438871  0.22524536     1.11300
O294        O  0.69134408  0.73511655  0.20782210    -0.97000
Zr295      Zr  0.72034647  0.76307742  0.21096954     1.88900
O296        O  0.76196497  0.80455368  0.18852052    -0.73600
O297        O  0.77836839  0.72024471  0.22288837    -0.52900
O298        O  0.73296796  0.73219478  0.18897060    -0.97600
O299        O  0.68859335  0.77685607  0.18960893    -0.54800
O300        O  0.73695373  0.77850518  0.17792842    -0.74100
C301        C  0.75132970  0.79354610  0.17372837     0.98200
O302        O  0.79344838  0.83207733  0.23391130    -0.63000
O303        O  0.69284386  0.84004844  0.27649270    -0.57800
O304        O  0.75289177  0.84234353  0.22349441    -0.94400
O305        O  0.71927623  0.84709444  0.23999385    -0.92900
O306        O  0.74288088  0.82739327  0.31245330    -0.93200
O307        O  0.78566185  0.81909903  0.29978658    -0.92000
C308        C  0.73653353  0.85436774  0.22963626     1.17100
H309        H  0.70669719  0.79458736  0.29664072     0.33000
H310        H  0.79097558  0.78711188  0.26442573     0.43800
H311        H  0.72149255  0.81019918  0.20735649     0.37400
H312        H  0.72803685  0.72642739  0.23954722     0.33900
H313        H  0.78087456  0.78520898  0.33192093     0.25600
H314        H  0.78906864  0.70996269  0.22993313     0.31600
H315        H  0.74906296  0.73494998  0.18655093     0.37500
H316        H  0.72902779  0.83201451  0.30474937     0.31900
H317        H  0.67893966  0.84556624  0.26949927     0.30800
H318        H  0.66724831  0.82933733  0.23070556     0.32500
H319        H  0.69316603  0.79155477  0.18425607     0.31500
H320        H  0.78470770  0.82989463  0.28750978     0.35500
H321        H  0.78816576  0.84147148  0.24611559     0.28200
H322        H  0.68135623  0.71756349  0.28534646     0.32400
H323        H  0.68880054  0.73312205  0.19173987     0.35300
H324        H  0.68784305  0.83245000  0.29012636     0.27900
H325        H  0.80639380  0.82437638  0.24058319     0.40800
H326        H  0.80564126  0.74826520  0.28286964     0.30800
H327        H  0.77982191  0.76323579  0.31867866     0.38400
H328        H  0.67694778  0.77978762  0.20076170     0.30300
H329        H  0.76449851  0.71159398  0.22101191     0.30400
H330        H  0.68806434  0.71445103  0.26044233     0.30600
C331        C  0.19482321  0.21456293  0.02379122     0.79800
N332        N  0.20207000  0.22292796  0.00413053    -0.78500
C333        C  0.19233143  0.21657615  0.98473391     0.82300
N334        N  0.17556655  0.20155556  0.98526042    -0.78400
C335        C  0.16815020  0.19320714  0.00472491     0.82400
N336        N  0.17768656  0.19993769  0.02392337    -0.80100
Zr337      Zr  0.20921236  0.25153399  0.77925867     2.17500
O338        O  0.18363235  0.24514225  0.80995067    -0.51700
O339        O  0.21261249  0.21212325  0.77630362    -0.74900
O340        O  0.17112269  0.24471698  0.76739707    -0.81700
O341        O  0.25269517  0.26965572  0.82303603    -0.83500
O342        O  0.16684287  0.25392385  0.73112492    -0.79100
O343        O  0.22076168  0.25006925  0.81777170    -0.90700
O344        O  0.23968877  0.20326850  0.75191479    -0.76700
O345        O  0.21590362  0.24152435  0.74190872    -0.86200
O346        O  0.24851872  0.24690185  0.77677422    -0.85900
O347        O  0.19437270  0.28150978  0.75777778    -0.72600
O348        O  0.22495180  0.28604983  0.78989772    -0.84800
Zr349      Zr  0.25690943  0.30174989  0.72686833     2.26400
Zr350      Zr  0.20186474  0.27151699  0.72008571     2.06300
Zr351      Zr  0.26445530  0.28178454  0.78636212     2.10000
Zr352      Zr  0.25534798  0.23773768  0.73919528     1.78800
O353        O  0.27075408  0.31178495  0.81209630    -0.93600
O354        O  0.24891800  0.21665143  0.70561030    -0.41400
O355        O  0.27180957  0.27223993  0.74869131    -0.78000
O356        O  0.24142841  0.26705137  0.71636213    -0.96700
O357        O  0.21771557  0.30609396  0.72990091    -0.90000
O358        O  0.25055328  0.31145048  0.76438597    -0.92800
C359        C  0.22394246  0.19820461  0.76527392     1.00900
C360        C  0.23629964  0.25798852  0.83008505     1.13800
C361        C  0.15942680  0.24635757  0.74960560     1.04600
O362        O  0.19647473  0.24259753  0.69295002    -0.95000
O363        O  0.21195820  0.28835907  0.68453417    -0.90700
O364        O  0.24312157  0.30917790  0.68981725    -0.83900
C365        C  0.22710453  0.30181008  0.67776600     1.11300
O366        O  0.18250930  0.31709085  0.79574721    -0.97000
Zr367      Zr  0.21127324  0.31555533  0.76741778     1.88900
O368        O  0.25203383  0.34113454  0.72685445    -0.73600
O369        O  0.17066964  0.29326103  0.70618334    -0.52900
O370        O  0.17740466  0.33141462  0.75160451    -0.97600
O371        O  0.22144979  0.34053851  0.79722479    -0.54800
O372        O  0.22289613  0.34901144  0.74937244    -0.74100
C373        C  0.23844419  0.35449789  0.73597656     0.98200
O374        O  0.28544645  0.29801887  0.69843826    -0.63000
O375        O  0.29483835  0.25936277  0.80102233    -0.57800
O376        O  0.29324165  0.31327595  0.73984129    -0.94400
O377        O  0.29919439  0.29928649  0.77440801    -0.92900
O378        O  0.28705489  0.22118455  0.75840060    -0.93200
O379        O  0.28779714  0.23395399  0.71542683    -0.92000
C380        C  0.30551617  0.30984082  0.75699514     1.17100
H381        H  0.25357768  0.23543365  0.78669202     0.33000
H382        H  0.24507723  0.26397108  0.70113798     0.43800
H383        H  0.25826345  0.32484603  0.76817580     0.37400
H384        H  0.17859601  0.28353150  0.76011839     0.33900
H385        H  0.25557209  0.20209827  0.70872294     0.25600
H386        H  0.16184438  0.28307043  0.69688127     0.31600
H387        H  0.18012994  0.33203438  0.73545733     0.37500
H388        H  0.28594621  0.20533415  0.75512300     0.31900
H389        H  0.30022149  0.26736094  0.81424599     0.30800
H390        H  0.28290873  0.30659728  0.82198548     0.32500
H391        H  0.23537774  0.34781973  0.79235141     0.31500
H392        H  0.28794134  0.24751494  0.70633828     0.35500
H393        H  0.29767775  0.28968098  0.70564369     0.28200
H394        H  0.17627537  0.23089424  0.80696783     0.32400
H395        H  0.17719612  0.33245242  0.79568911     0.35300
H396        H  0.28758889  0.24603500  0.80708237     0.27900
H397        H  0.27917256  0.28750274  0.68761722     0.40800
H398        H  0.18182144  0.24584457  0.68601286     0.30800
H399        H  0.23262206  0.21392438  0.70535453     0.38400
H400        H  0.22618621  0.33085417  0.80959968     0.30300
H401        H  0.16120831  0.29592312  0.71927580     0.30400
H402        H  0.17171776  0.25627264  0.80829790     0.30600
Zr403      Zr  0.20068834  0.80061740  0.77640064     2.17500
O404        O  0.16865956  0.79791784  0.80099473    -0.51700
O405        O  0.20504126  0.83979089  0.77876407    -0.74900
O406        O  0.21206120  0.80540282  0.81465878    -0.81700
O407        O  0.15943213  0.79538911  0.72817047    -0.83500
O408        O  0.24795861  0.79377419  0.81862579    -0.79100
O409        O  0.16447210  0.81122969  0.76192740    -0.90700
O410        O  0.23241504  0.85051551  0.75524942    -0.76700
O411        O  0.23936966  0.80890046  0.77339408    -0.86200
O412        O  0.20629069  0.81055153  0.73867842    -0.85900
O413        O  0.21947702  0.76780882  0.78811774    -0.72600
O414        O  0.18850776  0.76963392  0.75534058    -0.84800
Zr415      Zr  0.25269705  0.75455343  0.72539844     2.26400
Zr416      Zr  0.25846551  0.77606081  0.78403471     2.06300
Zr417      Zr  0.19506290  0.77934043  0.71748265     2.10000
Zr418      Zr  0.24496798  0.81829228  0.73560075     1.78800
O419        O  0.16679693  0.75268483  0.70663598    -0.93600
O420        O  0.27924214  0.83699240  0.74648997    -0.41400
O421        O  0.23398588  0.78736735  0.71382328    -0.78000
O422        O  0.26494679  0.78583364  0.74610463    -0.96700
O423        O  0.24700975  0.74481489  0.76309732    -0.90000
O424        O  0.21397762  0.74651309  0.72829964    -0.92800
C425        C  0.21759905  0.85438920  0.76993399     1.00900
C426        C  0.15269602  0.80674422  0.74470655     1.13800
C427        C  0.22996875  0.80245001  0.82605183     1.04600
O428        O  0.28915078  0.80026556  0.79427647    -0.95000
O429        O  0.29357422  0.75817335  0.77415874    -0.90700
O430        O  0.28898502  0.74429345  0.73960612    -0.83900
C431        C  0.30065644  0.74773240  0.75712929     1.11300
O432        O  0.17692608  0.73502101  0.79172460    -0.97000
Zr433      Zr  0.20821253  0.73717037  0.76615049     1.88900
O434        O  0.25086136  0.71484644  0.72591575    -0.73600
O435        O  0.26625390  0.75017724  0.81398265    -0.52900
O436        O  0.21938890  0.71673041  0.79916748    -0.97600
O437        O  0.17758028  0.71510512  0.75144618    -0.54800
O438        O  0.22529376  0.70432813  0.75155201    -0.74100
C439        C  0.24023613  0.70022226  0.73703461     0.98200
O440        O  0.28254160  0.75953805  0.69838384    -0.63000
O441        O  0.18456469  0.80621222  0.68929950    -0.57800
O442        O  0.24104438  0.74911874  0.68739245    -0.94400
O443        O  0.20768705  0.76593927  0.68155405    -0.92900
O444        O  0.22902112  0.84173192  0.70682249    -0.93200
O445        O  0.27127152  0.82401791  0.70552627    -0.92000
C446        C  0.22482904  0.75525035  0.67483049     1.17100
H447        H  0.19758895  0.82329004  0.73461992     0.33000
H448        H  0.28067029  0.78835281  0.74367917     0.43800
H449        H  0.20979124  0.73456006  0.71869725     0.37400
H450        H  0.21613195  0.76450897  0.80340780     0.33900
H451        H  0.27762175  0.85206943  0.74052419     0.25600
H452        H  0.27826022  0.75722777  0.82277303     0.31600
H453        H  0.23580436  0.71845270  0.79995381     0.37500
H454        H  0.23772968  0.85552297  0.70766544     0.31900
H455        H  0.19863290  0.80970326  0.68149885     0.30800
H456        H  0.15809623  0.76010838  0.69479643     0.32500
H457        H  0.18289905  0.70952296  0.73706031     0.31500
H458        H  0.27598469  0.80908591  0.70130680     0.35500
H459        H  0.27670425  0.77030877  0.68748576     0.28200
H460        H  0.16881120  0.81161312  0.80972126     0.32400
H461        H  0.17529003  0.71928747  0.79552540     0.35300
H462        H  0.17555803  0.79789671  0.67839160     0.27900
H463        H  0.29439457  0.76783695  0.70619207     0.40800
H464        H  0.29549618  0.80525879  0.78001261     0.30800
H465        H  0.27805147  0.83868093  0.76272800     0.38400
H466        H  0.16586391  0.72587269  0.74743777     0.30300
H467        H  0.25297338  0.75068672  0.82364133     0.30400
H468        H  0.17247036  0.78617072  0.81175119     0.30600
Zr469      Zr  0.75794254  0.25783340  0.78200036     2.17500
O470        O  0.78876985  0.25948431  0.80851700    -0.51700
O471        O  0.75518796  0.21814126  0.78002145    -0.74900
O472        O  0.74571418  0.24863627  0.81918044    -0.81700
O473        O  0.80076578  0.27250450  0.73782850    -0.83500
O474        O  0.71037258  0.26136614  0.82358850    -0.79100
O475        O  0.79563692  0.25183106  0.76895385    -0.90700
O476        O  0.73057437  0.20926249  0.75285808    -0.76700
O477        O  0.71980832  0.24848085  0.77635248    -0.86200
O478        O  0.75406477  0.25218105  0.74317529    -0.85900
O479        O  0.73733062  0.28864002  0.79576290    -0.72600
O480        O  0.76893807  0.29169908  0.76477661    -0.84800
Zr481      Zr  0.70525002  0.30765467  0.73318105     2.26400
Zr482      Zr  0.69893695  0.27926626  0.78908002     2.06300
Zr483      Zr  0.76428174  0.28618343  0.72581093     2.10000
Zr484      Zr  0.71581932  0.24329186  0.73758056     1.78800
O485        O  0.79165768  0.31453192  0.71729046    -0.93600
O486        O  0.68324279  0.22179939  0.74821223    -0.41400
O487        O  0.72591753  0.27698982  0.71955355    -0.78000
O488        O  0.69400448  0.27369202  0.75013376    -0.96700
O489        O  0.70938982  0.31304569  0.77188925    -0.90000
O490        O  0.74347426  0.31694217  0.73869293    -0.92800
C491        C  0.74456454  0.20410103  0.76820066     1.00900
C492        C  0.80785051  0.25983055  0.75347002     1.13800
C493        C  0.72802573  0.25154858  0.83067239     1.04600
O494        O  0.67061592  0.25104230  0.79438241    -0.95000
O495        O  0.66399943  0.29797476  0.77992904    -0.90700
O496        O  0.66859937  0.31621054  0.74731065    -0.83900
C497        C  0.65702367  0.31065507  0.76425009     1.11300
O498        O  0.77734564  0.32431426  0.80506165    -0.97000
Zr499      Zr  0.74748733  0.32211173  0.77754054     1.88900
O500        O  0.70582737  0.34737796  0.73710551    -0.73600
O501        O  0.68524330  0.30052464  0.82017951    -0.52900
O502        O  0.73478560  0.33926977  0.81152199    -0.97600
O503        O  0.77685636  0.34658172  0.76436493    -0.54800
O504        O  0.72757089  0.35512360  0.76708044    -0.74100
C505        C  0.71418584  0.36065975  0.75138954     0.98200
O506        O  0.67546369  0.30334804  0.70573759    -0.63000
O507        O  0.77792028  0.26206072  0.69692274    -0.57800
O508        O  0.71741425  0.31686543  0.69609162    -0.94400
O509        O  0.75168792  0.30246464  0.69055198    -0.92900
O510        O  0.73157534  0.22496928  0.70555930    -0.93200
O511        O  0.68906850  0.23947563  0.70730080    -0.92000
C512        C  0.73420265  0.31288498  0.68372990     1.17100
H513        H  0.76353960  0.24040731  0.73823548     0.33000
H514        H  0.67846054  0.27086496  0.74687651     0.43800
H515        H  0.74740386  0.33004014  0.73051519     0.37400
H516        H  0.74009287  0.29056442  0.81140449     0.33900
H517        H  0.68541147  0.20737244  0.74111899     0.25600
H518        H  0.67620711  0.29005959  0.82897935     0.31600
H519        H  0.71835599  0.33749161  0.81122558     0.37500
H520        H  0.72880364  0.20915902  0.70817583     0.31900
H521        H  0.76426614  0.25639833  0.68959952     0.30800
H522        H  0.79662207  0.31125422  0.70206146     0.32500
H523        H  0.76970595  0.35602753  0.75298357     0.31500
H524        H  0.67866478  0.25192076  0.70905708     0.35500
H525        H  0.68193231  0.29407449  0.69401702     0.28200
H526        H  0.78887565  0.24508046  0.81617639     0.32400
H527        H  0.77912302  0.34012026  0.80829846     0.35300
H528        H  0.78474101  0.27198044  0.68581352     0.27900
H529        H  0.66426891  0.29363582  0.71278099     0.40800
H530        H  0.66046653  0.25254842  0.78146015     0.30800
H531        H  0.68537248  0.21883568  0.76422496     0.38400
H532        H  0.78701151  0.33700267  0.75594089     0.30300
H533        H  0.69857398  0.30347243  0.82947686     0.30400
H534        H  0.78403056  0.27011488  0.81988031     0.30600
Zr535      Zr  0.75156242  0.80899580  0.77549899     2.17500
O536        O  0.75153237  0.83852743  0.80259884    -0.51700
O537        O  0.79212163  0.80825089  0.77450925    -0.74900
O538        O  0.75731290  0.79630108  0.81316542    -0.81700
O539        O  0.74190384  0.85179418  0.72977685    -0.83500
O540        O  0.74417851  0.76154306  0.81712289    -0.79100
O541        O  0.75667532  0.84669818  0.76418770    -0.90700
O542        O  0.80326416  0.78346928  0.74909021    -0.76700
O543        O  0.76090616  0.77141860  0.77134256    -0.86200
O544        O  0.76095485  0.80517687  0.73753300    -0.85900
O545        O  0.71856136  0.78931174  0.78634616    -0.72600
O546        O  0.71875798  0.82027049  0.75551620    -0.84800
Zr547      Zr  0.70559178  0.75742156  0.72233914     2.26400
Zr548      Zr  0.72792645  0.75144206  0.78131074     2.06300
Zr549      Zr  0.72818463  0.81597740  0.71743021     2.10000
Zr550      Zr  0.76992897  0.76742756  0.73329328     1.78800
O551        O  0.69825091  0.84118741  0.70748342    -0.93600
O552        O  0.79136781  0.73680691  0.74833158    -0.41400
O553        O  0.73796513  0.77821639  0.71204129    -0.78000
O554        O  0.73792077  0.74611473  0.74317886    -0.96700
O555        O  0.69553589  0.76141538  0.76012493    -0.90000
O556        O  0.69565335  0.79498840  0.72663412    -0.92800
C557        C  0.80727378  0.79790022  0.76392459     1.00900
C558        C  0.75188210  0.85871568  0.74734759     1.13800
C559        C  0.75351599  0.77899064  0.82469168     1.04600
O560        O  0.75282448  0.72221128  0.79343530    -0.95000
O561        O  0.71181806  0.71619448  0.77083788    -0.90700
O562        O  0.69998208  0.71987391  0.73527578    -0.83900
C563        C  0.70305736  0.70849972  0.75301916     1.11300
O564        O  0.67911034  0.82568434  0.79361297    -0.97000
Zr565      Zr  0.68635151  0.79897137  0.76464702     1.88900
O566        O  0.66514215  0.75815648  0.72223737    -0.73600
O567        O  0.69970089  0.74307124  0.80899065    -0.52900
O568        O  0.66579218  0.78215604  0.79505327    -0.97600
O569        O  0.66536242  0.83086321  0.75181272    -0.54800
O570        O  0.65344934  0.78304659  0.74742101    -0.74100
C571        C  0.64983416  0.76844953  0.73262449     0.98200
O572        O  0.70377441  0.73062329  0.69250067    -0.63000
O573        O  0.75344009  0.83195200  0.69022138    -0.57800
O574        O  0.70516628  0.76889152  0.68372045    -0.94400
O575        O  0.71664397  0.80437817  0.68066742    -0.92900
O576        O  0.79170828  0.78011051  0.70179270    -0.93200
O577        O  0.77442319  0.73910499  0.70542536    -0.92000
C578        C  0.70952738  0.78629658  0.67245108     1.17100
H579        H  0.77339453  0.81446539  0.73352895     0.33000
H580        H  0.74132756  0.73089359  0.74048746     0.43800
H581        H  0.68334876  0.79888354  0.71697719     0.37400
H582        H  0.71520564  0.79212914  0.80168735     0.33900
H583        H  0.80615604  0.73802031  0.74118974     0.25600
H584        H  0.70666433  0.73180940  0.81866604     0.31600
H585        H  0.64987531  0.78512212  0.79172033     0.37500
H586        H  0.78045897  0.78385706  0.69030232     0.31900
H587        H  0.75822109  0.81954623  0.68089681     0.30800
H588        H  0.70406637  0.84961658  0.69469246     0.32500
H589        H  0.64977810  0.82795644  0.75634368     0.31500
H590        H  0.76046081  0.73967874  0.69657643     0.35500
H591        H  0.71522706  0.71943321  0.69604658     0.28200
H592        H  0.76589249  0.83734257  0.81074104     0.32400
H593        H  0.66279386  0.82527557  0.79611775     0.35300
H594        H  0.74377673  0.84094976  0.68040195     0.27900
H595        H  0.68925422  0.72300720  0.69415249     0.40800
H596        H  0.74608707  0.71654804  0.80727521     0.30800
H597        H  0.79420994  0.74065269  0.76400897     0.38400
H598        H  0.66501880  0.82971384  0.73548168     0.30300
H599        H  0.69891555  0.75631575  0.81834558     0.30400
H600        H  0.73991167  0.83459972  0.81352423     0.30600
C601        C  0.49341995  0.71390789  0.71179325     0.79800
N602        N  0.49209327  0.69852449  0.69576644    -0.78500
C603        C  0.47333524  0.68640577  0.69296150     0.82300
N604        N  0.45552359  0.68992798  0.70631555    -0.78400
C605        C  0.45664410  0.70524697  0.72262383     0.82400
N606        N  0.47566772  0.71725843  0.72525622    -0.80100
C607        C  0.26813107  0.50786398  0.68980525     0.79800
N608        N  0.26331660  0.52780462  0.69844581    -0.78500
C609        C  0.27391928  0.54601808  0.69072794     0.82300
N610        N  0.28925513  0.54409009  0.67441551    -0.78400
C611        C  0.29413300  0.52423258  0.66578302     0.82400
N612        N  0.28365779  0.50614611  0.67366689    -0.80100
C613        C  0.50170366  0.34955583  0.72085786     0.79800
N614        N  0.48211454  0.34484776  0.73108899    -0.78500
C615        C  0.46247224  0.35153630  0.72194437     0.82300
N616        N  0.46249294  0.36305020  0.70263279    -0.78400
C617        C  0.48193321  0.36766240  0.69218041     0.82400
N618        N  0.50148754  0.36110881  0.70154118    -0.80100
C619        C  0.66023723  0.51327777  0.72659138     0.79800
N620        N  0.66703888  0.53284969  0.73498672    -0.78500
C621        C  0.65947050  0.55184566  0.72576930     0.82300
N622        N  0.64562980  0.55124466  0.70789440    -0.78400
C623        C  0.63948000  0.53177602  0.69901160     0.82400
N624        N  0.64668461  0.51286620  0.70849980    -0.80100
C625        C  0.50209919  0.35669091  0.28966035     0.79800
N626        N  0.50257755  0.36795103  0.30893968    -0.78500
C627        C  0.48342958  0.37315821  0.31944329     0.82300
N628        N  0.46358112  0.36700311  0.31055389    -0.78400
C629        C  0.46270831  0.35537834  0.29144950     0.82400
N630        N  0.48208837  0.35032629  0.28098103    -0.80100
C631        C  0.69265645  0.51493402  0.32429630     0.79800
N632        N  0.67656622  0.51553973  0.33995796    -0.78500
C633        C  0.66939190  0.53494395  0.34805685     0.82300
N634        N  0.67845357  0.55385336  0.34028178    -0.78400
C635        C  0.69481856  0.55351334  0.32480853     0.82400
N636        N  0.70165116  0.53394969  0.31653712    -0.80100
C637        C  0.50824768  0.73963538  0.32476070     0.79800
N638        N  0.50805822  0.72280583  0.33959875    -0.78500
C639        C  0.48847991  0.71446766  0.34709550     0.82300
N640        N  0.46893190  0.72265983  0.33916822    -0.78400
C641        C  0.46882906  0.73917102  0.32394234     0.82400
N642        N  0.48856029  0.74780454  0.31695135    -0.80100
C643        C  0.28610546  0.51484240  0.30508159     0.79800
N644        N  0.27779628  0.53398994  0.29690257    -0.78500
C645        C  0.28695595  0.55344997  0.30316538     0.82300
N646        N  0.30421364  0.55365245  0.31803819    -0.78400
C647        C  0.31231133  0.53449150  0.32651506     0.82400
N648        N  0.30306924  0.51531242  0.31999618    -0.80100
C649        C  0.66173013  0.73864377  0.48346846     0.79800
N650        N  0.66769078  0.75073655  0.50140638    -0.78500
C651        C  0.65966556  0.74555189  0.52180729     0.82300
N652        N  0.64616018  0.72778495  0.52425031    -0.78400
C653        C  0.64048392  0.71535917  0.50652505     0.82400
N654        N  0.64828078  0.72092191  0.48621515    -0.80100
C655        C  0.70704057  0.35976281  0.48728350     0.79800
N656        N  0.68856826  0.37269569  0.48780903    -0.78500
C657        C  0.68032593  0.37986257  0.50738386     0.82300
N658        N  0.69114557  0.37448776  0.52646957    -0.78400
C659        C  0.70965540  0.36168314  0.52624043     0.82400
N660        N  0.71744359  0.35412967  0.50661366    -0.80100
C661        C  0.26606548  0.70155914  0.48348100     0.79800
N662        N  0.28214626  0.68603504  0.48557022    -0.78500
C663        C  0.28892552  0.67908012  0.50588926     0.82300
N664        N  0.27969126  0.68796187  0.52420284    -0.78400
C665        C  0.26352068  0.70349547  0.52246471     0.82400
N666        N  0.25682488  0.71035110  0.50195416    -0.80100
C667        C  0.26968746  0.34609742  0.48473590     0.79800
N668        N  0.26112839  0.33858470  0.50420932    -0.78500
C669        C  0.27061315  0.34450691  0.52384982     0.82300
N670        N  0.28876407  0.35795047  0.52392545    -0.78400
C671        C  0.29737146  0.36569331  0.50464048     0.82400
N672        N  0.28781712  0.35952043  0.48521687    -0.80100
O673        O  0.91587504  0.99814315  0.00553880    -0.86900
O674        O  0.04237454  0.99734768  0.00403977    -0.87100
O675        O  0.97842819  0.97299353  0.96724360    -0.88700
O676        O  0.98060807  0.96993936  0.03950373    -0.87500
O677        O  0.98092170  0.99532969  0.06745231    -0.87100
O678        O  0.97822231  0.00113739  0.94179271    -0.88400
O679        O  0.01544458  0.97057073  0.00312752    -0.86900
O680        O  0.94282289  0.97159409  0.00344907    -0.86500
Zr681      Zr  0.97939049  0.98919090  0.00408045     2.84300
O682        O  0.00271645  0.00997858  0.02705427    -1.08500
O683        O  0.95661406  0.01260292  0.98310659    -1.09200
C684        C  0.92228919  0.97794273  0.00434435     1.06200
C685        C  0.03598252  0.97713862  0.00350887     1.06200
C686        C  0.97809071  0.98063015  0.94723191     1.09100
C687        C  0.98088282  0.97552819  0.06010118     1.06900
H688        H  0.01051643  0.00332108  0.97278019     0.32500
O689        O  0.00155927  0.01224396  0.98241074    -1.29400
H690        H  0.94844669  0.00074878  0.03682878     0.32200
O691        O  0.95758338  0.01028893  0.02782513    -1.31100
O692        O  0.04395040  0.06817555  0.00551926    -0.86900
O693        O  0.91703785  0.06947700  0.01000367    -0.88400
O694        O  0.01470493  0.03399622  0.94282767    -0.87000
O695        O  0.01758153  0.02915510  0.06827720    -0.87000
O696        O  0.94544601  0.03045159  0.06955818    -0.86700
O697        O  0.94213740  0.03520318  0.94370706    -0.86500
O698        O  0.98021823  0.09797523  0.97254657    -0.86900
O699        O  0.97999243  0.09444737  0.04464688    -0.86400
O700        O  0.98097872  0.07231444  0.94483283    -0.87400
O701        O  0.98026310  0.06615888  0.06989111    -0.86600
O702        O  0.04239902  0.03308835  0.96918759    -0.87000
O703        O  0.91570287  0.03383604  0.97103214    -0.86700
O704        O  0.91759398  0.03132819  0.04326881    -0.86400
O705        O  0.04398319  0.03057937  0.04093622    -0.86800
O706        O  0.01754509  0.09529998  0.00756455    -0.87100
O707        O  0.94430638  0.09600896  0.01013799    -0.88400
Zr708      Zr  0.02471448  0.03313411  0.00533646     2.83100
Zr709      Zr  0.93483371  0.03369426  0.00680096     2.83500
Zr710      Zr  0.97884140  0.03577629  0.96148848     2.84100
Zr711      Zr  0.98099703  0.03143620  0.05042324     2.83400
Zr712      Zr  0.98050161  0.07801329  0.00779964     2.84200
O713        O  0.95824661  0.05473893  0.02941771    -1.09000
O714        O  0.00227245  0.05671840  0.98416345    -1.08500
C715        C  0.03796245  0.08845015  0.00659367     1.06200
C716        C  0.92374770  0.08960679  0.01107333     1.08800
C717        C  0.03538233  0.03278229  0.94893780     1.06400
C718        C  0.03795667  0.02905804  0.06139589     1.06700
C719        C  0.92475432  0.03053569  0.06350180     1.06300
C720        C  0.92173736  0.03428033  0.95052981     1.05900
C721        C  0.98111943  0.09225168  0.95199499     1.06300
C722        C  0.97968208  0.08670163  0.06463113     1.05800
H723        H  0.94737291  0.06671995  0.97613418     0.32500
O724        O  0.95682780  0.05716370  0.98487765    -1.30100
H725        H  0.01303807  0.06332632  0.03861148     0.32500
O726        O  0.00340977  0.05477830  0.02909350    -1.31500
O727        O  0.47602559  0.58743571  0.54693453    -0.86900
O728        O  0.48324704  0.46304590  0.54021678    -0.87100
O729        O  0.44133385  0.52281718  0.56693604    -0.88700
O730        O  0.51341203  0.52429751  0.57335167    -0.87500
O731        O  0.54248065  0.52791813  0.54905357    -0.87100
O732        O  0.41641693  0.52289868  0.53794264    -0.88400
O733        O  0.47896768  0.48838619  0.56784144    -0.86900
O734        O  0.47578839  0.55910490  0.57213932    -0.86500
Zr735      Zr  0.47895540  0.52492490  0.55192286     2.84300
O736        O  0.50438610  0.50525403  0.53065474    -1.08500
O737        O  0.45695233  0.54737069  0.52930990    -1.09200
C738        C  0.47488046  0.57962023  0.56681057     1.06200
C739        C  0.48052393  0.46859357  0.56064275     1.06200
C740        C  0.42135250  0.52256921  0.55876934     1.09100
C741        C  0.53437153  0.52552756  0.56871632     1.06900
H742        H  0.45001549  0.49289725  0.53481708     0.32500
O743        O  0.45955683  0.50290760  0.52680660    -1.29400
H744        H  0.51011258  0.55869557  0.54375893     0.32200
O745        O  0.50199778  0.54979375  0.53325223    -1.31100
O746        O  0.48752886  0.46783669  0.46826680    -0.86900
O747        O  0.48227895  0.59238095  0.47546833    -0.88400
O748        O  0.42125845  0.48914292  0.50127202    -0.87000
O749        O  0.54744670  0.49574152  0.51187775    -0.87000
O750        O  0.54354067  0.56669539  0.51426937    -0.86700
O751        O  0.41754346  0.55993024  0.50621214    -0.86500
O752        O  0.45041385  0.53077994  0.44215467    -0.86900
O753        O  0.52321755  0.53354767  0.44845851    -0.86400
O754        O  0.42172953  0.52735760  0.46695002    -0.87400
O755        O  0.54818625  0.53270432  0.47752456    -0.86600
O756        O  0.44939259  0.46364336  0.50214277    -0.87000
O757        O  0.44277414  0.58822173  0.50887708    -0.86700
O758        O  0.51493658  0.59169541  0.51384062    -0.86400
O759        O  0.52262485  0.46729445  0.50801023    -0.86800
O760        O  0.48658542  0.49638407  0.44317646    -0.87100
O761        O  0.48605090  0.56766486  0.44727260    -0.88400
Zr762      Zr  0.48503218  0.48330177  0.50528074     2.83100
Zr763      Zr  0.47987265  0.57191980  0.51014512     2.83500
Zr764      Zr  0.43775239  0.52546460  0.50397646     2.84100
Zr765      Zr  0.52704730  0.53010526  0.51158791     2.83400
Zr766      Zr  0.48549966  0.53077362  0.46326149     2.84200
O767        O  0.50517919  0.55245714  0.48856432    -1.09000
O768        O  0.46291393  0.50579701  0.48239411    -1.08500
C769        C  0.48728235  0.47585126  0.44841861     1.06200
C770        C  0.48442557  0.58738246  0.45482795     1.08800
C771        C  0.42856637  0.46923962  0.50131254     1.06400
C772        C  0.54257778  0.47516676  0.51064645     1.06700
C773        C  0.53577391  0.58645195  0.51487933     1.06300
C774        C  0.42274195  0.58042206  0.50770577     1.05900
C775        C  0.42946803  0.52959741  0.44716630     1.06300
C776        C  0.54316744  0.53388045  0.45674359     1.05800
H777        H  0.45104197  0.55975090  0.47531097     0.32500
O778        O  0.46014777  0.55043967  0.48466425    -1.30100
H779        H  0.51816263  0.50013857  0.47707019     0.32500
O780        O  0.50772298  0.50819177  0.48600838    -1.31500
C781        C  0.34293877  0.40695368  0.52020723    -0.11800
C782        C  0.35711485  0.40538616  0.50191408     0.14800
C783        C  0.35183871  0.39052427  0.48485123     0.01700
C784        C  0.33227013  0.37801249  0.48621721    -0.16100
C785        C  0.31773237  0.37973485  0.50436402    -0.11000
C786        C  0.32323079  0.39462256  0.52149795     0.08400
C787        C  0.37608971  0.42089584  0.50036169     0.09400
S788        S  0.36907910  0.38699726  0.46072376    -0.25300
H789        H  0.32849788  0.36664570  0.47298176     0.19700
S790        S  0.30520544  0.40001178  0.54459464    -0.31000
H791        H  0.34678701  0.41863620  0.53314868     0.10000
C792        C  0.37451129  0.44011193  0.48740384     0.03200
C793        C  0.39216682  0.45523464  0.48756964    -0.13300
C794        C  0.41137022  0.45172214  0.50063103    -0.09000
C795        C  0.41283267  0.43235543  0.51363456     0.06600
C796        C  0.39531507  0.41709954  0.51315364    -0.14000
S797        S  0.34959358  0.44580833  0.47136775    -0.31000
H798        H  0.39087829  0.47007251  0.47771008     0.10900
S799        S  0.43564887  0.42687818  0.53245788    -0.28100
H800        H  0.39633264  0.40247626  0.52339501     0.08100
H801        H  0.28554896  0.40032031  0.53170787     0.26500
H802        H  0.35691546  0.46572290  0.46201859     0.21300
H803        H  0.43690002  0.44847929  0.54033641     0.26700
H804        H  0.38921367  0.39427663  0.47022204     0.15500
C805        C  0.32930849  0.63235968  0.49589736    -0.11800
C806        C  0.34686044  0.63805411  0.51020010     0.14800
C807        C  0.34475760  0.65656585  0.52394128     0.01700
C808        C  0.32522261  0.66907505  0.52282931    -0.16100
C809        C  0.30784085  0.66373391  0.50808626    -0.11000
C810        C  0.30977450  0.64481472  0.49485681     0.08400
C811        C  0.36681360  0.62394109  0.51055873     0.09400
S812        S  0.36614448  0.66519341  0.54324502    -0.25300
H813        H  0.32390266  0.68355564  0.53305028     0.19700
S814        S  0.28767825  0.63511708  0.47705265    -0.31000
H815        H  0.33075106  0.61788880  0.48567349     0.10000
C816        C  0.36837109  0.60580988  0.52499524     0.03200
C817        C  0.38696951  0.59199917  0.52378281    -0.13300
C818        C  0.40403131  0.59599232  0.50841565    -0.09000
C819        C  0.40244457  0.61429225  0.49400095     0.06600
C820        C  0.38387855  0.62809383  0.49531691    -0.14000
S821        S  0.34646658  0.60006943  0.54463077    -0.31000
H822        H  0.38826197  0.57797819  0.53481259     0.10900
S823        S  0.42283837  0.62049834  0.47296118    -0.28100
H824        H  0.38245984  0.64194831  0.48407246     0.08100
H825        H  0.27018183  0.64261551  0.49044001     0.26500
H826        H  0.35678492  0.58193489  0.55490145     0.21300
H827        H  0.42965632  0.59885269  0.46913498     0.26700
H828        H  0.38431309  0.65447703  0.53358861     0.15500
C829        C  0.62482546  0.40457104  0.52527445    -0.11800
C830        C  0.62072809  0.41960717  0.50810562     0.14800
C831        C  0.63616319  0.42138789  0.49057977     0.01700
C832        C  0.65519294  0.40802347  0.49060603    -0.16100
C833        C  0.65943702  0.39298964  0.50787595    -0.11000
C834        C  0.64365432  0.39102215  0.52518254     0.08400
C835        C  0.60014232  0.43302967  0.50909573     0.09400
S836        S  0.63265393  0.44031997  0.46772692    -0.25300
H837        H  0.66702474  0.40970638  0.47719810     0.19700
S838        S  0.64559877  0.37066046  0.54688382    -0.31000
H839        H  0.61287545  0.40296548  0.53859537     0.10000
C840        C  0.58106151  0.42809404  0.49625462     0.03200
C841        C  0.56200258  0.44141972  0.49782006    -0.13300
C842        C  0.56166670  0.45966858  0.51192029    -0.09000
C843        C  0.58049350  0.46373102  0.52566679     0.06600
C844        C  0.59949729  0.45058766  0.52389463    -0.14000
S845        S  0.58108069  0.40494559  0.47776738    -0.31000
H846        H  0.54757423  0.43801235  0.48754812     0.10900
S847        S  0.58110145  0.48485061  0.54645575    -0.28100
H848        H  0.61391780  0.45398886  0.53426109     0.08100
H849        H  0.65306734  0.35388743  0.53286543     0.26500
H850        H  0.55850601  0.40638146  0.47137720     0.21300
H851        H  0.55846886  0.48256893  0.55215317     0.26700
H852        H  0.61963880  0.45580380  0.47889115     0.15500
C853        C  0.61148594  0.66405675  0.52844165    -0.11800
C854        C  0.59543420  0.66062386  0.51181154     0.14800
C855        C  0.59408167  0.67539765  0.49375508     0.01700
C856        C  0.60920645  0.69282392  0.49245018    -0.16100
C857        C  0.62545580  0.69624120  0.50894194    -0.11000
C858        C  0.62664714  0.68151152  0.52711653     0.08400
C859        C  0.58099842  0.64101518  0.51337352     0.09400
S860        S  0.57361110  0.67311538  0.47176444    -0.25300
H861        H  0.60798975  0.70409304  0.47855558     0.19700
S862        S  0.64779039  0.68320699  0.54843261    -0.31000
H863        H  0.61263969  0.65262619  0.54221798     0.10000
C864        C  0.58484032  0.62241718  0.50021721     0.03200
C865        C  0.57042167  0.60434823  0.50186730    -0.13300
C866        C  0.55199633  0.60467213  0.51612204    -0.09000
C867        C  0.54854216  0.62319444  0.52969316     0.06600
C868        C  0.56307058  0.64112186  0.52814890    -0.14000
S869        S  0.60781178  0.62191079  0.48098670    -0.31000
H870        H  0.57298703  0.59023750  0.49139579     0.10900
S871        S  0.52613610  0.62492643  0.54945540    -0.28100
H872        H  0.56027634  0.65537625  0.53838791     0.08100
H873        H  0.66502463  0.68958522  0.53402742     0.26500
H874        H  0.60320724  0.60113379  0.47203970     0.21300
H875        H  0.52584630  0.60243951  0.55478255     0.26700
H876        H  0.55824442  0.65958939  0.48279962     0.15500
C877        C  0.36572884  0.54571273  0.35941228    -0.11800
C878        C  0.36353036  0.53060080  0.37685066     0.14800
C879        C  0.34461808  0.51681431  0.37757302     0.01700
C880        C  0.32815902  0.51877011  0.36113362    -0.16100
C881        C  0.33023062  0.53393583  0.34359451    -0.11000
C882        C  0.34955239  0.54724861  0.34262028     0.08400
C883        C  0.38075100  0.53031132  0.39451549     0.09400
S884        S  0.34038944  0.49656660  0.39907452    -0.25300
H885        H  0.31356862  0.50826699  0.36204325     0.19700
S886        S  0.35532278  0.56545475  0.31983528    -0.31000
H887        H  0.38037143  0.55615882  0.35871707     0.10000
C888        C  0.40114247  0.51916530  0.39194093     0.03200
C889        C  0.41699245  0.51946903  0.40918906    -0.13300
C890        C  0.41291359  0.53091328  0.42887995    -0.09000
C891        C  0.39268493  0.54270506  0.43097321     0.06600
C892        C  0.37673238  0.54191715  0.41399610    -0.14000
S893        S  0.40663261  0.50404882  0.36695651    -0.31000
H894        H  0.43240468  0.51039937  0.40753983     0.10900
S895        S  0.38668551  0.56007698  0.45424772    -0.28100
H896        H  0.36122955  0.55085391  0.41574560     0.08100
H897        H  0.34721071  0.55097322  0.30360579     0.26500
H898        H  0.42850172  0.49765736  0.37257768     0.21300
H899        H  0.40880766  0.56735827  0.45689689     0.26700
H900        H  0.36305682  0.49245089  0.40347500     0.15500
C901        C  0.47495824  0.67835841  0.39687241    -0.11800
C902        C  0.48920907  0.66051006  0.39335039     0.14800
C903        C  0.50350497  0.66076119  0.37485293     0.01700
C904        C  0.50292240  0.67857232  0.36011915    -0.16100
C905        C  0.48859221  0.69640286  0.36354182    -0.11000
C906        C  0.47475876  0.69641583  0.38243734     0.08400
C907        C  0.48845952  0.64177299  0.40907050     0.09400
S908        S  0.52284139  0.63892137  0.36911954    -0.25300
H909        H  0.51370260  0.67846652  0.34577213     0.19700
S910        S  0.45730005  0.71930096  0.38966421    -0.31000
H911        H  0.46413701  0.67833524  0.41119098     0.10000
C912        C  0.49728021  0.64346896  0.43067587     0.03200
C913        C  0.49577522  0.62548437  0.44519690    -0.13300
C914        C  0.48528614  0.60585321  0.43872243    -0.09000
C915        C  0.47602636  0.60446258  0.41712472     0.06600
C916        C  0.47810170  0.62222938  0.40247241    -0.14000
S917        S  0.51097342  0.66835884  0.43956342    -0.31000
H918        H  0.50303159  0.62664608  0.46161866     0.10900
S919        S  0.46007346  0.58117570  0.40768976    -0.28100
H920        H  0.47096463  0.62108224  0.38598002     0.08100
H921        H  0.47205042  0.73553415  0.38185390     0.26500
H922        H  0.51396205  0.66216666  0.46186621     0.21300
H923        H  0.44875623  0.57813556  0.42784513     0.26700
H924        H  0.52650882  0.63257254  0.39125803     0.15500
C925        C  0.63176451  0.55072880  0.39594162    -0.11800
C926        C  0.61493307  0.53487555  0.39401156     0.14800
C927        C  0.61600345  0.51919334  0.37698251     0.01700
C928        C  0.63413302  0.51948325  0.36254796    -0.16100
C929        C  0.65115485  0.53527735  0.36444459    -0.11000
C930        C  0.64996100  0.55097992  0.38156624     0.08400
C931        C  0.59694207  0.53475403  0.41052306     0.09400
S932        S  0.59497180  0.49833688  0.37275556    -0.25300
H933        H  0.63471082  0.50746217  0.34942213     0.19700
S934        S  0.67153826  0.57095056  0.38686125    -0.31000
H935        H  0.63101927  0.56261742  0.40918789     0.10000
C936        C  0.59687174  0.51961276  0.42822888     0.03200
C937        C  0.57928869  0.51996994  0.44339654    -0.13300
C938        C  0.56189190  0.53523477  0.44119050    -0.09000
C939        C  0.56252632  0.55094647  0.42392891     0.06600
C940        C  0.57992058  0.55038037  0.40864096    -0.14000
S941        S  0.61921282  0.49997929  0.43154136    -0.31000
H942        H  0.57883805  0.50809397  0.45679939     0.10900
S943        S  0.54220954  0.57259995  0.42108155    -0.28100
H944        H  0.58031921  0.56230228  0.39526356     0.08100
H945        H  0.68926181  0.55649697  0.38263392     0.26500
H946        H  0.61085719  0.48960143  0.45064380     0.21300
H947        H  0.53873642  0.57524313  0.44393630     0.26700
H948        H  0.57724612  0.50918223  0.38309369     0.15500
C949        C  0.47052757  0.39836658  0.37521662    -0.11800
C950        C  0.48502514  0.41643963  0.37501853     0.14800
C951        C  0.49951050  0.41964265  0.35694504     0.01700
C952        C  0.49911642  0.40476659  0.33949353    -0.16100
C953        C  0.48426454  0.38693892  0.33937390    -0.11000
C954        C  0.47004227  0.38353657  0.35767003     0.08400
C955        C  0.48515342  0.43128596  0.39418075     0.09400
S956        S  0.51851822  0.44256414  0.35483347    -0.25300
H957        H  0.50996590  0.40762588  0.32548357     0.19700
S958        S  0.45159279  0.36026264  0.36009696    -0.31000
H959        H  0.45970723  0.39567896  0.38929936     0.10000
C960        C  0.46699096  0.44525635  0.39840798     0.03200
C961        C  0.46824157  0.45972834  0.41626883    -0.13300
C962        C  0.48717781  0.46031930  0.43002349    -0.09000
C963        C  0.50527425  0.44620262  0.42586894     0.06600
C964        C  0.50398313  0.43169998  0.40808677    -0.14000
S965        S  0.44255910  0.44518444  0.38069420    -0.31000
H966        H  0.45444507  0.47065339  0.41959526     0.10900
S967        S  0.53066538  0.44635920  0.44207592    -0.28100
H968        H  0.51792747  0.42094268  0.40475955     0.08100
H969        H  0.46595195  0.34548329  0.34950655     0.26500
H970        H  0.42979574  0.45980295  0.39331279     0.21300
H971        H  0.52987113  0.46856238  0.44810612     0.26700
H972        H  0.50569418  0.45740261  0.36708078     0.15500
C973        C  0.61497059  0.51702363  0.64299328    -0.11800
C974        C  0.59490336  0.52879208  0.64327506     0.14800
C975        C  0.58990920  0.54212205  0.66164403     0.01700
C976        C  0.60500539  0.54312490  0.67939722    -0.16100
C977        C  0.62495528  0.53114340  0.67925566    -0.11000
C978        C  0.63016557  0.51827852  0.66061555     0.08400
C979        C  0.57996848  0.52732952  0.62381995     0.09400
S980        S  0.56455966  0.55796183  0.66387852    -0.25300
H981        H  0.60097603  0.55306823  0.69363689     0.19700
S982        S  0.65628324  0.50391176  0.65786478    -0.31000
H983        H  0.61899106  0.50711623  0.62872565     0.10000
C984        C  0.58342131  0.54069616  0.60507271     0.03200
C985        C  0.56870007  0.53921491  0.58702522    -0.13300
C986        C  0.55036849  0.52481965  0.58745909    -0.09000
C987        C  0.54725406  0.51107658  0.60620511     0.06600
C988        C  0.56199590  0.51261031  0.62421156    -0.14000
S989        S  0.60609537  0.56025715  0.60455226    -0.31000
H990        H  0.57109290  0.54979294  0.57276669     0.10900
S991        S  0.52530717  0.49084182  0.60796801    -0.28100
H992        H  0.55951542  0.50221312  0.63861250     0.08100
H993        H  0.66919704  0.51947450  0.66936175     0.26500
H994        H  0.59990196  0.57074243  0.58463569     0.21300
H995        H  0.52631790  0.48485156  0.58552942     0.26700
H996        H  0.55774155  0.55756685  0.64162217     0.15500
C997        C  0.46535910  0.39147042  0.63597473    -0.11800
C998        C  0.48246236  0.40681286  0.63267103     0.14800
C999        C  0.49960679  0.40886496  0.64868386     0.01700
C1000       C  0.49932710  0.39537112  0.66749336    -0.16100
C1001       C  0.48201202  0.38019621  0.67108110    -0.11000
C1002       C  0.46505254  0.37798854  0.65477701     0.08400
C1003       C  0.48120261  0.42114104  0.61292911     0.09400
S1004       S  0.52197517  0.42866863  0.64653354    -0.25300
H1005       H  0.51237860  0.39731322  0.67984123     0.19700
S1006       S  0.44307536  0.35780825  0.65634362    -0.31000
H1007       H  0.45222931  0.38986295  0.62364559     0.10000
C1008       C  0.49599550  0.41902365  0.59500599     0.03200
C1009       C  0.49482450  0.43412392  0.57739786    -0.13300
C1010       C  0.47901891  0.45108855  0.57742911    -0.09000
C1011       C  0.46323591  0.45211108  0.59470982     0.06600
C1012       C  0.46472470  0.43735284  0.61236103    -0.14000
S1013       S  0.51643130  0.39731327  0.59473048    -0.31000
H1014       H  0.50673677  0.43324169  0.56402203     0.10900
S1015       S  0.44060339  0.47162065  0.59517706    -0.28100
H1016       H  0.45300957  0.43859117  0.62590205     0.08100
H1017       H  0.45677297  0.34121897  0.66528614     0.26500
H1018       H  0.52556683  0.40245966  0.57392858     0.21300
H1019       H  0.43792627  0.47312392  0.57207843     0.26700
H1020       H  0.51057194  0.44416875  0.63344001     0.15500
C1021       C  0.33149687  0.53635426  0.61681471    -0.11800
C1022       C  0.34702699  0.51931020  0.61872123     0.14800
C1023       C  0.34432416  0.50308066  0.63526730     0.01700
C1024       C  0.32647407  0.50473682  0.64997552    -0.16100
C1025       C  0.31127231  0.52219781  0.64852439    -0.11000
C1026       C  0.31344122  0.53774312  0.63122319     0.08400
C1027       C  0.36603470  0.51942226  0.60342595     0.09400
S1028       S  0.36282799  0.47991447  0.63872613    -0.25300
H1029       H  0.32481330  0.49260865  0.66306123     0.19700
S1030       S  0.29326713  0.55907876  0.62596431    -0.31000
H1031       H  0.33334641  0.54853442  0.60379772     0.10000
C1032       C  0.36550817  0.50759328  0.58351076     0.03200
C1033       C  0.38380712  0.50885606  0.56919426    -0.13300
C1034       C  0.40252252  0.52185874  0.57441393    -0.09000
C1035       C  0.40265470  0.53402258  0.59429479     0.06600
C1036       C  0.38456051  0.53243897  0.60866028    -0.14000
S1037       S  0.34149803  0.49105217  0.57638738    -0.31000
H1038       H  0.38361465  0.49960189  0.55394781     0.10900
S1039       S  0.42462148  0.55292504  0.60166639    -0.28100
H1040       H  0.38465378  0.54184160  0.62383707     0.08100
H1041       H  0.27465829  0.54640864  0.63222610     0.26500
H1042       H  0.34959710  0.48343445  0.55602496     0.21300
H1043       H  0.42708329  0.56132087  0.58006134     0.26700
H1044       H  0.38053012  0.48715133  0.62544900     0.15500
C1045       C  0.46263092  0.63550386  0.65825310    -0.11800
C1046       C  0.47226658  0.64181444  0.63811658     0.14800
C1047       C  0.48182568  0.66285859  0.63598693     0.01700
C1048       C  0.48139855  0.67712997  0.65400351    -0.16100
C1049       C  0.47222555  0.67069220  0.67442481    -0.11000
C1050       C  0.46303729  0.64942276  0.67654075     0.08400
C1051       C  0.47277082  0.62573346  0.61998034     0.09400
S1052       S  0.49521030  0.67231308  0.61098213    -0.25300
H1053       H  0.48862698  0.69333185  0.65213936     0.19700
S1054       S  0.45340747  0.63817506  0.70235449    -0.31000
H1055       H  0.45556612  0.61920622  0.65997274     0.10000
C1056       C  0.48657455  0.60709898  0.62133487     0.03200
C1057       C  0.48642642  0.59202385  0.60396594    -0.13300
C1058       C  0.47305103  0.59539338  0.58508042    -0.09000
C1059       C  0.45911628  0.61406621  0.58384580     0.06600
C1060       C  0.45922902  0.62907420  0.60126055    -0.14000
S1061       S  0.50517034  0.60306161  0.64470135    -0.31000
H1062       H  0.49725544  0.57784479  0.60479407     0.10900
S1063       S  0.44031030  0.61932718  0.56097055    -0.28100
H1064       H  0.44852200  0.64335577  0.60035285     0.08100
H1065       H  0.46980128  0.64853416  0.71541302     0.26500
H1066       H  0.51527997  0.58374092  0.63711037     0.21300
H1067       H  0.43478433  0.59719529  0.55740872     0.26700
H1068       H  0.50296128  0.65173035  0.60410252     0.15500
C1069       C  0.70833846  0.76517616  0.61373304    -0.11800
C1070       C  0.69405614  0.78033321  0.60340716     0.14800
C1071       C  0.68682728  0.79883891  0.61532963     0.01700
C1072       C  0.69289580  0.80103003  0.63766377    -0.16100
C1073       C  0.70620072  0.78517139  0.64827988    -0.11000
C1074       C  0.71473606  0.76756414  0.63585659     0.08400
C1075       C  0.68490819  0.77474680  0.58131568     0.09400
S1076       S  0.66935183  0.81975227  0.60311274    -0.25300
H1077       H  0.68654301  0.81475980  0.64701060     0.19700
S1078       S  0.73374079  0.74753109  0.64731501    -0.31000
H1079       H  0.71405827  0.75101096  0.60463869     0.10000
C1080       C  0.69873107  0.77255966  0.56266385     0.03200
C1081       C  0.68974856  0.76411701  0.54296383    -0.13300
C1082       C  0.66721087  0.75781587  0.54154652    -0.09000
C1083       C  0.65309808  0.76152653  0.55983296     0.06600
C1084       C  0.66216455  0.76955857  0.57956075    -0.14000
S1085       S  0.72782372  0.78030938  0.56401615    -0.31000
H1086       H  0.70054340  0.76154914  0.52891096     0.10900
S1087       S  0.62339840  0.75668749  0.55903399    -0.28100
H1088       H  0.65146189  0.77143446  0.59382803     0.08100
H1089       H  0.74444966  0.76208367  0.66194205     0.26500
H1090       H  0.73345062  0.77369504  0.54248876     0.21300
H1091       H  0.62081650  0.76223829  0.53651081     0.26700
H1092       H  0.67709330  0.81709191  0.58135449     0.15500
C1093       C  0.65659216  0.60902121  0.74902311    -0.11800
C1094       C  0.67780582  0.61710988  0.74353789     0.14800
C1095       C  0.69367428  0.60275191  0.73423715     0.01700
C1096       C  0.68783705  0.58087546  0.73026910    -0.16100
C1097       C  0.66625630  0.57320244  0.73468705    -0.11000
C1098       C  0.65062802  0.58729728  0.74456617     0.08400
C1099       C  0.68278840  0.64063223  0.74724564     0.09400
S1100       S  0.72112353  0.61159986  0.72584508    -0.25300
H1101       H  0.69976185  0.57013925  0.72239969     0.19700
S1102       S  0.62264856  0.57863184  0.75124265    -0.31000
H1103       H  0.64444907  0.61986381  0.75639259     0.10000
C1104       C  0.67244806  0.65715331  0.73443051     0.03200
C1105       C  0.67906528  0.67905397  0.73712184    -0.13300
C1106       C  0.69589978  0.68501787  0.75237237    -0.09000
C1107       C  0.70563394  0.66828835  0.76572483     0.06600
C1108       C  0.69882752  0.64646029  0.76313032    -0.14000
S1109       S  0.65156450  0.65031468  0.71384199    -0.31000
H1110       H  0.67124257  0.69159208  0.72697833     0.10900
S1111       S  0.72776939  0.67315607  0.78536020    -0.28100
H1112       H  0.70669651  0.63373914  0.77304741     0.08100
H1113       H  0.62786790  0.55641619  0.75483372     0.26500
H1114       H  0.64557636  0.67194982  0.70824681     0.21300
H1115       H  0.74075973  0.68505127  0.77009765     0.26700
H1116       H  0.71489793  0.63295491  0.71950626     0.15500
C1117       C  0.58706963  0.77106281  0.72349453    -0.11800
C1118       C  0.58179432  0.74871594  0.72244402     0.14800
C1119       C  0.59908100  0.73302728  0.72322558     0.01700
C1120       C  0.62114466  0.74001284  0.72604282    -0.16100
C1121       C  0.62645714  0.76238360  0.72773422    -0.11000
C1122       C  0.60919552  0.77807860  0.72586217     0.08400
C1123       C  0.55813151  0.74224048  0.72050208     0.09400
S1124       S  0.59410277  0.70389854  0.72130234    -0.25300
H1125       H  0.63424640  0.72782741  0.72735228     0.19700
S1126       S  0.61429999  0.80720288  0.72561460    -0.31000
H1127       H  0.57383350  0.78311338  0.72237835     0.10000
C1128       C  0.54591834  0.73503889  0.73903291     0.03200
C1129       C  0.52414947  0.72701999  0.73601908    -0.13300
C1130       C  0.51449269  0.72611758  0.71481254    -0.09000
C1131       C  0.52621488  0.73487349  0.69652461     0.06600
C1132       C  0.54796835  0.74280144  0.69957902    -0.14000
S1133       S  0.55828393  0.73564840  0.76637187    -0.31000
H1134       H  0.51502376  0.72049615  0.75001568     0.10900
S1135       S  0.51347936  0.73631637  0.66933274    -0.28100
H1136       H  0.55738791  0.74890353  0.68558133     0.08100
H1137       H  0.63485899  0.80589073  0.71457786     0.26500
H1138       H  0.53937189  0.72813271  0.77785975     0.21300
H1139       H  0.53104315  0.74747880  0.65875020     0.26700
H1140       H  0.57494079  0.70518946  0.70783607     0.15500
C1141       C  0.71361823  0.33622066  0.62788398    -0.11800
C1142       C  0.73196702  0.33244029  0.61426586     0.14800
C1143       C  0.75126225  0.32267752  0.62351091     0.01700
C1144       C  0.75152788  0.31660229  0.64602220    -0.16100
C1145       C  0.73310404  0.32043031  0.65996152    -0.11000
C1146       C  0.71390312  0.33065453  0.65037225     0.08400
C1147       C  0.73007899  0.33946141  0.59070859     0.09400
S1148       S  0.77607004  0.31752035  0.60758710    -0.25300
H1149       H  0.76643031  0.30890430  0.65266141     0.19700
S1150       S  0.68878293  0.33713263  0.66520519    -0.31000
H1151       H  0.69880258  0.34379975  0.62084931     0.10000
C1152       C  0.72689086  0.32431982  0.57338301     0.03200
C1153       C  0.72192347  0.33205008  0.55190561    -0.13300
C1154       C  0.71978676  0.35459711  0.54750882    -0.09000
C1155       C  0.72432387  0.36968737  0.56461791     0.06600
C1156       C  0.72915879  0.36198816  0.58598589    -0.14000
S1157       S  0.72739200  0.29520334  0.57892446    -0.31000
H1158       H  0.71828727  0.32049032  0.53882547     0.10900
S1159       S  0.72398722  0.39896954  0.56027147    -0.28100
H1160       H  0.73177836  0.37367237  0.59920771     0.08100
H1161       H  0.69997487  0.35067539  0.68038911     0.26500
H1162       H  0.72480107  0.28843481  0.55682453     0.21300
H1163       H  0.73001024  0.39827953  0.53780698     0.26700
H1164       H  0.77264845  0.33398382  0.59155946     0.15500
C1165       C  0.56130724  0.32944751  0.72689144    -0.11800
C1166       C  0.56522300  0.33250453  0.74956471     0.14800
C1167       C  0.54767619  0.33992591  0.76311181     0.01700
C1168       C  0.52680201  0.34453441  0.75349475    -0.16100
C1169       C  0.52315759  0.34221900  0.73059705    -0.11000
C1170       C  0.54052991  0.33393438  0.71733359     0.08400
C1171       C  0.58816820  0.32846576  0.75780892     0.09400
S1172       S  0.55079311  0.34423614  0.79251535    -0.25300
H1173       H  0.51355760  0.35076048  0.76383882     0.19700
S1174       S  0.53715368  0.32800524  0.68827302    -0.31000
H1175       H  0.57463351  0.32340571  0.71652390     0.10000
C1176       C  0.59417375  0.30878238  0.76860303     0.03200
C1177       C  0.61687383  0.30401425  0.77209276    -0.13300
C1178       C  0.63364506  0.31855966  0.76494860    -0.09000
C1179       C  0.62732674  0.33915564  0.75597147     0.06600
C1180       C  0.60476573  0.34367385  0.75218101    -0.14000
S1181       S  0.57308997  0.28908035  0.77646251    -0.31000
H1182       H  0.62158693  0.28829974  0.77910132     0.10900
S1183       S  0.64713830  0.36035104  0.74888086    -0.28100
H1184       H  0.60009237  0.35899527  0.74424362     0.08100
H1185       H  0.51489788  0.32080632  0.69003906     0.26500
H1186       H  0.58753089  0.27442196  0.78748586     0.21300
H1187       H  0.66253513  0.35485403  0.76570271     0.26700
H1188       H  0.57404746  0.34713297  0.79286915     0.15500
C1189       C  0.70229350  0.41801891  0.72979325    -0.11800
C1190       C  0.69373365  0.42802065  0.74877228     0.14800
C1191       C  0.69246691  0.41594673  0.76875060     0.01700
C1192       C  0.69954284  0.39408006  0.76914833    -0.16100
C1193       C  0.70781304  0.38396156  0.75004456    -0.11000
C1194       C  0.70956867  0.39626902  0.73026075     0.08400
C1195       C  0.68526813  0.45064757  0.74654694     0.09400
S1196       S  0.68172634  0.42717786  0.79414202    -0.25300
H1197       H  0.69825556  0.38474651  0.78442550     0.19700
S1198       S  0.72157608  0.38551230  0.70529460    -0.31000
H1199       H  0.70334611  0.42730560  0.71446723     0.10000
C1200       C  0.69990698  0.46863481  0.74431113     0.03200
C1201       C  0.69120004  0.48942355  0.73926359    -0.13300
C1202       C  0.66817402  0.49241944  0.73620318    -0.09000
C1203       C  0.65348605  0.47460885  0.73991577     0.06600
C1204       C  0.66219541  0.45389616  0.74482032    -0.14000
S1205       S  0.72967466  0.46492405  0.74728430    -0.31000
H1206       H  0.70239723  0.50312882  0.73657279     0.10900
S1207       S  0.62352052  0.47725650  0.73861860    -0.28100
H1208       H  0.65094743  0.44009258  0.74683999     0.08100
H1209       H  0.73694243  0.37151876  0.71592415     0.26500
H1210       H  0.73576763  0.48672336  0.74250975     0.21300
H1211       H  0.62301500  0.49921028  0.74561424     0.26700
H1212       H  0.68441602  0.44946265  0.78881136     0.15500
C1213       C  0.21300541  0.73879653  0.61473268    -0.11800
C1214       C  0.23478624  0.73854243  0.60629317     0.14800
C1215       C  0.25272310  0.74504231  0.62000179     0.01700
C1216       C  0.24869259  0.75065176  0.64196693    -0.16100
C1217       C  0.22707712  0.75013769  0.65090630    -0.11000
C1218       C  0.20895754  0.74437730  0.63690101     0.08400
C1219       C  0.23896413  0.72888529  0.58427083     0.09400
S1220       S  0.28138844  0.74531835  0.61092849    -0.25300
H1221       H  0.26276846  0.75532154  0.65225633     0.19700
S1222       S  0.18067358  0.74220145  0.64660508    -0.31000
H1223       H  0.19923032  0.73355018  0.60430772     0.10000
C1224       C  0.24592291  0.70695927  0.58249043     0.03200
C1225       C  0.25317654  0.69909186  0.56201102    -0.13300
C1226       C  0.25381237  0.71269760  0.54308504    -0.09000
C1227       C  0.24608599  0.73459053  0.54488764     0.06600
C1228       C  0.23839501  0.74226923  0.56532841    -0.14000
S1229       S  0.24617854  0.68917670  0.60656033    -0.31000
H1230       H  0.25878267  0.68228172  0.56086284     0.10900
S1231       S  0.24742792  0.75419887  0.52250929    -0.28100
H1232       H  0.23327237  0.75922284  0.56681271     0.08100
H1233       H  0.18653326  0.73185235  0.66669834     0.26500
H1234       H  0.25220885  0.66986926  0.59549994     0.21300
H1235       H  0.26937379  0.74863531  0.51659151     0.26700
H1236       H  0.27699127  0.74975385  0.58848825     0.15500
C1237       C  0.35956743  0.72860943  0.77315167    -0.11800
C1238       C  0.36983178  0.72893220  0.75231478     0.14800
C1239       C  0.35701093  0.73414811  0.73336052     0.01700
C1240       C  0.33467352  0.73991172  0.73567211    -0.16100
C1241       C  0.32424011  0.74015450  0.75647926    -0.11000
C1242       C  0.33686051  0.73389958  0.77541532     0.08400
C1243       C  0.39378025  0.72350385  0.75023157     0.09400
S1244       S  0.36823450  0.73413830  0.70566291    -0.25300
H1245       H  0.32542482  0.74447506  0.72088865     0.19700
S1246       S  0.32490851  0.73146498  0.80261434    -0.31000
H1247       H  0.36925844  0.72406384  0.78767585     0.10000
C1248       C  0.40953477  0.73966794  0.74434070     0.03200
C1249       C  0.43068102  0.73327975  0.73696477    -0.13300
C1250       C  0.43627346  0.71101665  0.73511086    -0.09000
C1251       C  0.42118435  0.69498598  0.74304732     0.06600
C1252       C  0.40007246  0.70141278  0.75053279    -0.14000
S1253       S  0.40216076  0.76835569  0.74493311    -0.31000
H1254       H  0.44237032  0.74562773  0.73130558     0.10900
S1255       S  0.42869670  0.66640161  0.74398053    -0.28100
H1256       H  0.38793709  0.68916202  0.75544329     0.08100
H1257       H  0.30448214  0.72274132  0.79507667     0.26500
H1258       H  0.42182198  0.77634888  0.73512586     0.21300
H1259       H  0.40807349  0.65834680  0.75154991     0.26700
H1260       H  0.38301338  0.71654314  0.70894129     0.15500
C1261       C  0.27066306  0.64797617  0.72194528    -0.11800
C1262       C  0.25275614  0.63332175  0.71972103     0.14800
C1263       C  0.23093725  0.64030497  0.72470733     0.01700
C1264       C  0.22742034  0.66204537  0.73102506    -0.16100
C1265       C  0.24523403  0.67700152  0.73248626    -0.11000
C1266       C  0.26721579  0.66957431  0.72866862     0.08400
C1267       C  0.25754040  0.61087999  0.71223825     0.09400
S1268       S  0.20692227  0.62242577  0.72328278    -0.25300
H1269       H  0.21053465  0.66749263  0.73418472     0.19700
S1270       S  0.29160622  0.68642183  0.73314961    -0.31000
H1271       H  0.28749561  0.64241860  0.71869168     0.10000
C1272       C  0.26145820  0.60653777  0.68974618     0.03200
C1273       C  0.26672358  0.58519090  0.68330682    -0.13300
C1274       C  0.26823009  0.56805347  0.69890462    -0.09000
C1275       C  0.26438296  0.57254560  0.72151363     0.06600
C1276       C  0.25885203  0.59386762  0.72788479    -0.14000
S1277       S  0.25923613  0.62810053  0.66918992    -0.31000
H1278       H  0.26941706  0.58176425  0.66596419     0.10900
S1279       S  0.26745276  0.55224044  0.74312273    -0.28100
H1280       H  0.25607889  0.59737227  0.74522350     0.08100
H1281       H  0.28276390  0.69779409  0.75129381     0.26500
H1282       H  0.26620237  0.61559884  0.65100270     0.21300
H1283       H  0.28616907  0.54209140  0.73370233     0.26700
H1284       H  0.21511182  0.60816269  0.70708892     0.15500
C1285       C  0.23472818  0.33535279  0.62512332    -0.11800
C1286       C  0.23554898  0.31870519  0.60922934     0.14800
C1287       C  0.23096696  0.29687464  0.61572577     0.01700
C1288       C  0.22668500  0.29205636  0.63803143    -0.16100
C1289       C  0.22704038  0.30853108  0.65416337    -0.11000
C1290       C  0.23048453  0.33055559  0.64744235     0.08400
C1291       C  0.24375877  0.32430537  0.58674772     0.09400
S1292       S  0.23172320  0.27428294  0.59662993    -0.25300
H1293       H  0.22424083  0.27512044  0.64301185     0.19700
S1294       S  0.23019365  0.35321255  0.66654125    -0.31000
H1295       H  0.23814987  0.35214162  0.62020631     0.10000
C1296       C  0.22973054  0.33345327  0.57031103     0.03200
C1297       C  0.23867306  0.33917773  0.54954948    -0.13300
C1298       C  0.26147906  0.33628142  0.54508646    -0.09000
C1299       C  0.27533992  0.32671499  0.56153256     0.06600
C1300       C  0.26637776  0.32095596  0.58211640    -0.14000
S1301       S  0.20053975  0.33792664  0.57590937    -0.31000
H1302       H  0.22805395  0.34652639  0.53697995     0.10900
S1303       S  0.30449482  0.32098449  0.55715566    -0.28100
H1304       H  0.27715242  0.31381462  0.59470408     0.08100
H1305       H  0.21576060  0.34338045  0.68198394     0.26500
H1306       H  0.19503715  0.34711772  0.55516492     0.21300
H1307       H  0.30222024  0.31605937  0.53452366     0.26700
H1308       H  0.22557421  0.28642408  0.57771307     0.15500
C1309       C  0.24301467  0.45132181  0.69153342    -0.11800
C1310       C  0.24605138  0.44594001  0.71392143     0.14800
C1311       C  0.25335283  0.46216086  0.72890330     0.01700
C1312       C  0.25910826  0.48295645  0.72085911    -0.16100
C1313       C  0.25737572  0.48787624  0.69820227    -0.11000
C1314       C  0.24822924  0.47221161  0.68359184     0.08400
C1315       C  0.24361792  0.42278533  0.72055251     0.09400
S1316       S  0.25642176  0.45700645  0.75820022    -0.25300
H1317       H  0.26594909  0.49500436  0.73216237     0.19700
S1318       S  0.24314524  0.47777337  0.65461760    -0.31000
H1319       H  0.23709794  0.43896267  0.68006764     0.10000
C1320       C  0.22266554  0.41230598  0.72053918     0.03200
C1321       C  0.22142561  0.38996561  0.72582472    -0.13300
C1322       C  0.24077009  0.37793445  0.73088124    -0.09000
C1323       C  0.26172249  0.38858365  0.73115677     0.06600
C1324       C  0.26292474  0.41084156  0.72579949    -0.14000
S1325       S  0.19755612  0.42743988  0.71403713    -0.31000
H1326       H  0.20539245  0.38172710  0.72573474     0.10900
S1327       S  0.28734782  0.37492400  0.73885658    -0.28100
H1328       H  0.27903335  0.41897031  0.72574894     0.08100
H1329       H  0.24001547  0.50048743  0.65698562     0.26500
H1330       H  0.18262608  0.40971396  0.71600501     0.21300
H1331       H  0.27780977  0.36194766  0.75567318     0.26700
H1332       H  0.23951416  0.44102603  0.75951082     0.15500
C1333       C  0.36378202  0.33181648  0.77070930    -0.11800
C1334       C  0.37408599  0.32970307  0.75001581     0.14800
C1335       C  0.36161344  0.32180882  0.73185916     0.01700
C1336       C  0.33941914  0.31570748  0.73483573    -0.16100
C1337       C  0.32892812  0.31757618  0.75548419    -0.11000
C1338       C  0.34123753  0.32614011  0.77356093     0.08400
C1339       C  0.39775223  0.33591358  0.74729067     0.09400
S1340       S  0.37310232  0.31868808  0.70447109    -0.25300
H1341       H  0.33030236  0.30921634  0.72077947     0.19700
S1342       S  0.32895330  0.33120328  0.80018798    -0.31000
H1343       H  0.37325756  0.33824704  0.78457713     0.10000
C1344       C  0.40384141  0.35785403  0.74309569     0.03200
C1345       C  0.42543777  0.36259188  0.73563138    -0.13300
C1346       C  0.44101585  0.34580855  0.73226354    -0.09000
C1347       C  0.43509692  0.32390512  0.73727918     0.06600
C1348       C  0.41363953  0.31924245  0.74503315    -0.14000
S1349       S  0.38358743  0.37956661  0.74563184    -0.31000
H1350       H  0.43006444  0.37935766  0.73180005     0.10900
S1351       S  0.45330591  0.30102569  0.73211209    -0.28100
H1352       H  0.40877648  0.30233071  0.74784711     0.08100
H1353       H  0.30810775  0.33776777  0.79159431     0.26500
H1354       H  0.39692743  0.39637381  0.73665098     0.21300
H1355       H  0.46162150  0.30928983  0.71197570     0.26700
H1356       H  0.38762562  0.33677375  0.70529999     0.15500
C1357       C  0.07364852  0.13892431  0.01847495    -0.11800
C1358       C  0.09188884  0.13519908  0.00456282     0.14800
C1359       C  0.09234896  0.11611328  0.99147624     0.01700
C1360       C  0.07454892  0.10128013  0.99253220    -0.16100
C1361       C  0.05618008  0.10492230  0.00640829    -0.11000
C1362       C  0.05601027  0.12385082  0.01983621     0.08400
C1363       C  0.11086264  0.15069960  0.00511152     0.09400
S1364       S  0.11534025  0.10926446  0.97357965    -0.25300
H1365       H  0.07500811  0.08675799  0.98228577     0.19700
S1366       S  0.03473963  0.12891263  0.04016685    -0.31000
H1367       H  0.07354618  0.15331536  0.02891362     0.10000
C1368       C  0.11150470  0.16924956  0.99114343     0.03200
C1369       C  0.13049726  0.18272842  0.99123752    -0.13300
C1370       C  0.14891182  0.17798914  0.00497589    -0.09000
C1371       C  0.14818190  0.15925680  0.01888062     0.06600
C1372       C  0.12907476  0.14602477  0.01900800    -0.14000
S1373       S  0.08836192  0.17540055  0.97284646    -0.31000
H1374       H  0.13091883  0.19715844  0.98074070     0.10900
S1375       S  0.17147900  0.15057418  0.03579087    -0.28100
H1376       H  0.12864955  0.13155205  0.02950556     0.08100
H1377       H  0.03240213  0.10681979  0.04663224     0.26500
H1378       H  0.09818948  0.19359780  0.96227021     0.21300
H1379       H  0.18786265  0.15671941  0.02034196     0.26700
H1380       H  0.12380987  0.13051094  0.97043052     0.15500
C1381       C  0.19522547  0.23133947  0.92343124    -0.11800
C1382       C  0.21788148  0.23644305  0.92106388     0.14800
C1383       C  0.23169991  0.23705018  0.94006923     0.01700
C1384       C  0.22276155  0.23154946  0.96081546    -0.16100
C1385       C  0.20023122  0.22533883  0.96307343    -0.11000
C1386       C  0.18617285  0.22625736  0.94408770     0.08400
C1387       C  0.22603970  0.24150130  0.89846780     0.09400
S1388       S  0.26091289  0.24403492  0.93881955    -0.25300
H1389       H  0.23375692  0.23127531  0.97511698     0.19700
S1390       S  0.15634994  0.22231477  0.94495062    -0.31000
H1391       H  0.18438583  0.23162017  0.90898145     0.10000
C1392       C  0.22653173  0.22513889  0.88209426     0.03200
C1393       C  0.23088736  0.23100525  0.86008935    -0.13300
C1394       C  0.23474950  0.25291168  0.85397486    -0.09000
C1395       C  0.23497741  0.26923235  0.87052480     0.06600
C1396       C  0.23088480  0.26329718  0.89262170    -0.14000
S1397       S  0.22111524  0.19678647  0.88911376    -0.31000
H1398       H  0.23072745  0.21852976  0.84740168     0.10900
S1399       S  0.23847509  0.29799636  0.86436997    -0.28100
H1400       H  0.23023076  0.27592036  0.90515135     0.08100
H1401       H  0.15369726  0.23325949  0.96521510     0.26500
H1402       H  0.22564969  0.18806301  0.86810573     0.21300
H1403       H  0.22656286  0.29768575  0.84422967     0.26700
H1404       H  0.26460867  0.23507622  0.91776686     0.15500
C1405       C  0.66881344  0.74313407  0.42111007    -0.11800
C1406       C  0.69131899  0.74919598  0.41961084     0.14800
C1407       C  0.70373153  0.75290882  0.43918071     0.01700
C1408       C  0.69338718  0.75035822  0.45978083    -0.16100
C1409       C  0.67095860  0.74373181  0.46133715    -0.11000
C1410       C  0.65846033  0.74056255  0.44162847     0.08400
C1411       C  0.70068326  0.75293785  0.39730072     0.09400
S1412       S  0.73288418  0.76034321  0.43898039    -0.25300
H1413       H  0.70319670  0.75275178  0.47471844     0.19700
S1414       S  0.62904115  0.73422981  0.44134801    -0.31000
H1415       H  0.65910140  0.74082558  0.40608839     0.10000
C1416       C  0.70445315  0.73544133  0.38267959     0.03200
C1417       C  0.71126816  0.73992680  0.36092855    -0.13300
C1418       C  0.71427827  0.76159940  0.35345459    -0.09000
C1419       C  0.71044597  0.77908638  0.36825809     0.06600
C1420       C  0.70401108  0.77453434  0.39003074    -0.14000
S1421       S  0.70087351  0.70741676  0.39184902    -0.31000
H1422       H  0.71435956  0.72651003  0.34969746     0.10900
S1423       S  0.71197150  0.80755322  0.36015119    -0.28100
H1424       H  0.70067220  0.78797951  0.40117839     0.08100
H1425       H  0.62398272  0.74709493  0.45990865     0.26500
H1426       H  0.70382058  0.69767670  0.37103484     0.21300
H1427       H  0.70288726  0.80449953  0.33887230     0.26700
H1428       H  0.73810487  0.74981638  0.41903420     0.15500
C1429       C  0.61105924  0.77326160  0.31240506    -0.11800
C1430       C  0.59433171  0.77187909  0.29612146     0.14800
C1431       C  0.59976562  0.77622791  0.27378526     0.01700
C1432       C  0.62189938  0.78113915  0.26815264    -0.16100
C1433       C  0.63878340  0.78162046  0.28434753    -0.11000
C1434       C  0.63317335  0.77802236  0.30677731     0.08400
C1435       C  0.57205662  0.76364850  0.30274643     0.09400
S1436       S  0.57968271  0.77382549  0.25156477    -0.25300
H1437       H  0.62618583  0.78342064  0.25087722     0.19700
S1438       S  0.65365952  0.77836091  0.32883596    -0.31000
H1439       H  0.60697932  0.76983618  0.32954520     0.10000
C1440       C  0.56787546  0.74098152  0.30463198     0.03200
C1441       C  0.54690345  0.73367023  0.31180830    -0.13300
C1442       C  0.52991472  0.74855557  0.31712291    -0.09000
C1443       C  0.53430217  0.77131712  0.31548051     0.06600
C1444       C  0.55526567  0.77858992  0.30826299    -0.14000
S1445       S  0.58932022  0.72137089  0.29790794    -0.31000
H1446       H  0.54363103  0.71624558  0.31312991     0.10900
S1447       S  0.51439158  0.79186995  0.32346359    -0.28100
H1448       H  0.55865776  0.79602496  0.30723728     0.08100
H1449       H  0.66834514  0.79313373  0.31845795     0.26500
H1450       H  0.57716684  0.70243608  0.30364942     0.21300
H1451       H  0.50623844  0.78006710  0.34180953     0.26700
H1452       H  0.56118686  0.78095176  0.26369907     0.15500
C1453       C  0.73607174  0.59799378  0.30696549    -0.11800
C1454       C  0.72185877  0.61618383  0.30524581     0.14800
C1455       C  0.69874067  0.61329366  0.30875036     0.01700
C1456       C  0.69056522  0.59271308  0.31498511    -0.16100
C1457       C  0.70475325  0.57453112  0.31725875    -0.11000
C1458       C  0.72783883  0.57727661  0.31308008     0.08400
C1459       C  0.73134036  0.63806921  0.29994242     0.09400
S1460       S  0.67872204  0.63518259  0.30550704    -0.25300
H1461       H  0.67281867  0.59083768  0.31785606     0.19700
S1462       S  0.74785221  0.55548561  0.31652631    -0.31000
H1463       H  0.75380345  0.60011142  0.30419834     0.10000
C1464       C  0.73091997  0.65526807  0.31542875     0.03200
C1465       C  0.73558984  0.67674669  0.30838742    -0.13300
C1466       C  0.74146160  0.68128070  0.28634245    -0.09000
C1467       C  0.74397014  0.66371473  0.27142003     0.06600
C1468       C  0.73876407  0.64229016  0.27836070    -0.14000
S1469       S  0.72375255  0.64994892  0.34397777    -0.31000
H1470       H  0.73401114  0.69018914  0.31990675     0.10900
S1471       S  0.75147592  0.66854778  0.24291754    -0.28100
H1472       H  0.73916446  0.62897326  0.26658997     0.08100
H1473       H  0.73854101  0.54743663  0.33631780     0.26500
H1474       H  0.72854347  0.67111336  0.35181909     0.21300
H1475       H  0.75682340  0.64664778  0.23807211     0.26700
H1476       H  0.69020212  0.64654374  0.28874740     0.15500
C1477       C  0.72882111  0.32277998  0.44155912    -0.11800
C1478       C  0.72787257  0.33696023  0.42321880     0.14800
C1479       C  0.72092582  0.35885284  0.42622153     0.01700
C1480       C  0.71493104  0.36594193  0.44738837    -0.16100
C1481       C  0.71519750  0.35158727  0.46570193    -0.11000
C1482       C  0.72232632  0.32970842  0.46262175     0.08400
C1483       C  0.73139710  0.32764235  0.40093130     0.09400
S1484       S  0.71876847  0.37842198  0.40374934    -0.25300
H1485       H  0.70952123  0.38274318  0.44948686     0.19700
S1486       S  0.72175866  0.30928793  0.48430844    -0.31000
H1487       H  0.73367088  0.30584494  0.43921445     0.10000
C1488       C  0.75085046  0.33164164  0.38851264     0.03200
C1489       C  0.75230564  0.32347093  0.36682004    -0.13300
C1490       C  0.73462920  0.31143065  0.35740473    -0.09000
C1491       C  0.71580997  0.30637758  0.37053121     0.06600
C1492       C  0.71429580  0.31475560  0.39191712    -0.14000
S1493       S  0.77362065  0.34723895  0.40022356    -0.31000
H1494       H  0.76689950  0.32703262  0.35693159     0.10900
S1495       S  0.69344036  0.28876641  0.36131246    -0.28100
H1496       H  0.69954698  0.31128161  0.40165082     0.08100
H1497       H  0.70101482  0.31591351  0.49274668     0.26500
H1498       H  0.78630069  0.34872234  0.38073971     0.21300
H1499       H  0.70709021  0.27505280  0.34859101     0.26700
H1500       H  0.71334797  0.36339521  0.38701428     0.15500
C1501       C  0.69204579  0.41510768  0.28816214    -0.11800
C1502       C  0.71078449  0.42853758  0.29153137     0.14800
C1503       C  0.73233324  0.41986458  0.28841495     0.01700
C1504       C  0.73467227  0.39798084  0.28210524    -0.16100
C1505       C  0.71597209  0.38439823  0.27886492    -0.11000
C1506       C  0.69436369  0.39321087  0.28175340     0.08400
C1507       C  0.70733150  0.45116712  0.29935330     0.09400
S1508       S  0.75751112  0.43561052  0.29278938    -0.25300
H1509       H  0.75131424  0.39137438  0.28008720     0.19700
S1510       S  0.66913394  0.37763735  0.27712239    -0.31000
H1511       H  0.67548377  0.42176534  0.29057402     0.10000
C1512       C  0.70050554  0.46806109  0.28480532     0.03200
C1513       C  0.69686538  0.48917598  0.29314551    -0.13300
C1514       C  0.69986623  0.49358694  0.31573596    -0.09000
C1515       C  0.70749872  0.47679087  0.33008733     0.06600
C1516       C  0.71097126  0.45574518  0.32178865    -0.14000
S1517       S  0.69644951  0.46267083  0.25568628    -0.31000
H1518       H  0.69095407  0.50210416  0.28224083     0.10900
S1519       S  0.71335105  0.48126863  0.35905437    -0.28100
H1520       H  0.71656532  0.44281062  0.33287929     0.08100
H1521       H  0.67739772  0.36569745  0.25909088     0.26500
H1522       H  0.69033475  0.48411937  0.24951540     0.21300
H1523       H  0.71956849  0.50341319  0.35671657     0.26700
H1524       H  0.74837627  0.45631279  0.28802572     0.15500
C1525       C  0.59676243  0.31094291  0.27461379    -0.11800
C1526       C  0.58754965  0.32619659  0.25975829     0.14800
C1527       C  0.60052735  0.33399412  0.24189582     0.01700
C1528       C  0.62260890  0.32675355  0.23965831    -0.16100
C1529       C  0.63202120  0.31193600  0.25494710    -0.11000
C1530       C  0.61866135  0.30357434  0.27230112     0.08400
C1531       C  0.56503003  0.33474972  0.26459642     0.09400
S1532       S  0.59015922  0.35365505  0.22191393    -0.25300
H1533       H  0.63273491  0.33327454  0.22633576     0.19700
S1534       S  0.62841303  0.28335120  0.29200961    -0.31000
H1535       H  0.58684461  0.30492459  0.28833199     0.10000
C1536       C  0.54582079  0.32153891  0.26246917     0.03200
C1537       C  0.52517598  0.32951447  0.26971650    -0.13300
C1538       C  0.52336763  0.35047563  0.27904453    -0.09000
C1539       C  0.54253346  0.36413302  0.27986393     0.06600
C1540       C  0.56312327  0.35599379  0.27298599    -0.14000
S1541       S  0.54770044  0.29443565  0.25077271    -0.31000
H1542       H  0.51059085  0.31904229  0.26895133     0.10900
S1543       S  0.54193267  0.39219806  0.28907209    -0.28100
H1544       H  0.57787278  0.36623436  0.27437879     0.08100
H1545       H  0.64310661  0.27280557  0.27747680     0.26500
H1546       H  0.52486817  0.28922206  0.25221153     0.21300
H1547       H  0.52041278  0.39656374  0.28069873     0.26700
H1548       H  0.56741294  0.34846209  0.22413042     0.15500
C1549       C  0.25142915  0.70450800  0.42237645    -0.11800
C1550       C  0.25605127  0.72657795  0.41764893     0.14800
C1551       C  0.26209899  0.74080809  0.43507707     0.01700
C1552       C  0.26439871  0.73242239  0.45662624    -0.16100
C1553       C  0.26052506  0.71017070  0.46122242    -0.11000
C1554       C  0.25349121  0.69619012  0.44400060     0.08400
C1555       C  0.25443546  0.73414985  0.39435920     0.09400
S1556       S  0.26767712  0.76961646  0.43085554    -0.25300
H1557       H  0.26982134  0.74321825  0.46980724     0.19700
S1558       S  0.24653101  0.66790203  0.44959199    -0.31000
H1559       H  0.24648569  0.69376348  0.40899288     0.10000
C1560       C  0.27357090  0.73765039  0.38134768     0.03200
C1561       C  0.27111531  0.74516119  0.35943932    -0.13300
C1562       C  0.24991955  0.74922492  0.35023140    -0.09000
C1563       C  0.23076822  0.74451507  0.36306957     0.06600
C1564       C  0.23325225  0.73735016  0.38499262    -0.14000
S1565       S  0.30105748  0.73232187  0.39257551    -0.31000
H1566       H  0.28574756  0.74813198  0.34952097     0.10900
S1567       S  0.20273545  0.74600081  0.35217254    -0.28100
H1568       H  0.21853170  0.73399822  0.39480411     0.08100
H1569       H  0.23767369  0.66315748  0.42852356     0.26500
H1570       H  0.31306030  0.73781949  0.37337482     0.21300
H1571       H  0.20832258  0.73823416  0.33103139     0.26700
H1572       H  0.25403160  0.77244100  0.41205180     0.15500
C1573       C  0.24070815  0.64453285  0.26122636    -0.11800
C1574       C  0.25079190  0.63849862  0.28140893     0.14800
C1575       C  0.25471297  0.65466699  0.29756719     0.01700
C1576       C  0.24954060  0.67653933  0.29286012    -0.16100
C1577       C  0.24035779  0.68290863  0.27231188    -0.11000
C1578       C  0.23560821  0.66654450  0.25642987     0.08400
C1579       C  0.25913134  0.61580789  0.28452804     0.09400
S1580       S  0.26728254  0.64856706  0.32412515    -0.25300
H1581       H  0.25319591  0.68883963  0.30526184     0.19700
S1582       S  0.22486563  0.67279520  0.22918787    -0.31000
H1583       H  0.23781987  0.63216458  0.24871793     0.10000
C1584       C  0.24516365  0.59870855  0.29194316     0.03200
C1585       C  0.25447844  0.57813497  0.29709729    -0.13300
C1586       C  0.27747167  0.57431466  0.29471676    -0.09000
C1587       C  0.29100171  0.59100018  0.28553441     0.06600
C1588       C  0.28183422  0.61164848  0.28101826    -0.14000
S1589       S  0.21577171  0.60352561  0.29601891    -0.31000
H1590       H  0.24400489  0.56526173  0.30382494     0.10900
S1591       S  0.31975862  0.58670892  0.27827380    -0.28100
H1592       H  0.29247848  0.62462267  0.27471493     0.08100
H1593       H  0.23849186  0.69133311  0.22591630     0.26500
H1594       H  0.21002648  0.58169025  0.30104674     0.21300
H1595       H  0.31740605  0.56423542  0.27366549     0.26700
H1596       H  0.25800594  0.62749687  0.32636568     0.15500
C1597       C  0.40805218  0.74407268  0.30614834    -0.11800
C1598       C  0.40521397  0.76688760  0.30574323     0.14800
C1599       C  0.42378024  0.78056463  0.31016139     0.01700
C1600       C  0.44462686  0.77111184  0.31485974    -0.16100
C1601       C  0.44730311  0.74824360  0.31588999    -0.11000
C1602       C  0.42881562  0.73463899  0.31086977     0.08400
C1603       C  0.38258824  0.77549961  0.30060178     0.09400
S1604       S  0.42188389  0.81006218  0.31083526    -0.25300
H1605       H  0.45864028  0.78171202  0.31873692     0.19700
S1606       S  0.43072802  0.70518002  0.30935770    -0.31000
H1607       H  0.39396038  0.73349928  0.30244880     0.10000
C1608       C  0.37742319  0.78557506  0.28010889     0.03200
C1609       C  0.35514132  0.79102248  0.27509316    -0.13300
C1610       C  0.33787299  0.78612627  0.28997518    -0.09000
C1611       C  0.34332821  0.77706408  0.31090850     0.06600
C1612       C  0.36549759  0.77174816  0.31592028    -0.14000
S1613       S  0.39876690  0.78954711  0.25949496    -0.31000
H1614       H  0.35095759  0.79762807  0.25890608     0.10900
S1615       S  0.32271051  0.77153777  0.33180624    -0.28100
H1616       H  0.36942390  0.76415422  0.33174527     0.08100
H1617       H  0.45266598  0.70493392  0.30118161     0.26500
H1618       H  0.38596425  0.80287812  0.24520992     0.21300
H1619       H  0.30772167  0.78801349  0.32501152     0.26700
H1620       H  0.39938118  0.81105779  0.31716457     0.15500
C1621       C  0.12423243  0.01184013  0.12709206    -0.11800
C1622       C  0.10773158  0.02805796  0.12789982     0.14800
C1623       C  0.10897172  0.04429672  0.14438964     0.01700
C1624       C  0.12667358  0.04401376  0.15959884    -0.16100
C1625       C  0.14327479  0.02774222  0.15897023    -0.11000
C1626       C  0.14216405  0.01172067  0.14209408     0.08400
C1627       C  0.09010398  0.02820298  0.11062459     0.09400
S1628       S  0.08865269  0.06593017  0.14677411    -0.25300
H1629       H  0.12727098  0.05652130  0.17225858     0.19700
S1630       S  0.16376629  0.99174495  0.13760651    -0.31000
H1631       H  0.12354809  0.99963402  0.11413261     0.10000
C1632       C  0.09124363  0.04248720  0.09224481     0.03200
C1633       C  0.07419304  0.04207302  0.07623485    -0.13300
C1634       C  0.05594941  0.02770320  0.07823131    -0.09000
C1635       C  0.05520986  0.01294767  0.09640660     0.06600
C1636       C  0.07218616  0.01349975  0.11245669    -0.14000
S1637       S  0.11448613  0.06114615  0.08911249    -0.31000
H1638       H  0.07485239  0.05326293  0.06225978     0.10900
S1639       S  0.03368679  0.99245525  0.09964150    -0.28100
H1640       H  0.07154360  0.00226638  0.12641766     0.08100
H1641       H  0.18139706  0.00663497  0.14115460     0.26500
H1642       H  0.10684622  0.07147367  0.06960242     0.21300
H1643       H  0.03081232  0.98853115  0.07687221     0.26700
H1644       H  0.07037952  0.05380854  0.13873866     0.15500
C1645       C  0.23231440  0.96733942  0.21196074    -0.11800
C1646       C  0.21887286  0.94858372  0.21392579     0.14800
C1647       C  0.19542588  0.95080202  0.21281392     0.01700
C1648       C  0.18607857  0.97130815  0.20815929    -0.16100
C1649       C  0.19947267  0.99002899  0.20523894    -0.11000
C1650       C  0.22292608  0.98797513  0.20752178     0.08400
C1651       C  0.22957805  0.92679960  0.21637107     0.09400
S1652       S  0.17649362  0.92808820  0.21696912    -0.25300
H1653       H  0.16808117  0.97265944  0.20681647     0.19700
S1654       S  0.24189719  0.01056743  0.20343583    -0.31000
H1655       H  0.25030449  0.96573170  0.21299690     0.10000
C1656       C  0.22805109  0.91097723  0.19949466     0.03200
C1657       C  0.23506994  0.88946803  0.20384983    -0.13300
C1658       C  0.24383916  0.88341701  0.22465424    -0.09000
C1659       C  0.24724065  0.89984773  0.24077482     0.06600
C1660       C  0.23995737  0.92128882  0.23651161    -0.14000
S1661       S  0.21636385  0.91793366  0.17269409    -0.31000
H1662       H  0.23273908  0.87700272  0.19134269     0.10900
S1663       S  0.25838282  0.89400690  0.26789252    -0.28100
H1664       H  0.24140267  0.93351796  0.24938842     0.08100
H1665       H  0.23077135  0.01874707  0.18454160     0.26500
H1666       H  0.21895131  0.89717190  0.16302623     0.21300
H1667       H  0.27843820  0.88553952  0.25952420     0.26700
H1668       H  0.19039268  0.91609486  0.23142468     0.15500
C1669       C  0.23637956  0.33677475  0.38151884    -0.11800
C1670       C  0.23794080  0.32017398  0.39763400     0.14800
C1671       C  0.23320085  0.29828642  0.39160958     0.01700
C1672       C  0.22788853  0.29340693  0.36950171    -0.16100
C1673       C  0.22778021  0.30985804  0.35314355    -0.11000
C1674       C  0.23134946  0.33188301  0.35943453     0.08400
C1675       C  0.24595618  0.32615336  0.42010899     0.09400
S1676       S  0.23479121  0.27575310  0.41103509    -0.25300
H1677       H  0.22528659  0.27647217  0.36478725     0.19700
S1678       S  0.23013929  0.35441674  0.33993663    -0.31000
H1679       H  0.23970294  0.35363014  0.38610100     0.10000
C1680       C  0.26853085  0.33153464  0.42380981     0.03200
C1681       C  0.27559963  0.33780756  0.44500555    -0.13300
C1682       C  0.26063501  0.33893233  0.46286166    -0.09000
C1683       C  0.23793631  0.33333881  0.45904393     0.06600
C1684       C  0.23094845  0.32682718  0.43782035    -0.14000
S1685       S  0.28850460  0.33007788  0.40154893    -0.31000
H1686       H  0.29302483  0.34178768  0.44765581     0.10900
S1687       S  0.21679460  0.33522556  0.48001521    -0.28100
H1688       H  0.21355607  0.32276772  0.43493719     0.08100
H1689       H  0.21461717  0.34457989  0.32549576     0.26500
H1690       H  0.30774999  0.33340838  0.41457763     0.21300
H1691       H  0.22438750  0.35551629  0.48811865     0.26700
H1692       H  0.25205911  0.28443695  0.42419865     0.15500
C1693       C  0.41536131  0.32494458  0.26191722    -0.11800
C1694       C  0.39710781  0.33837061  0.26688284     0.14800
C1695       C  0.40063663  0.35747794  0.27951982     0.01700
C1696       C  0.42223491  0.36277932  0.28663131    -0.16100
C1697       C  0.44056384  0.34912744  0.28214153    -0.11000
C1698       C  0.43689681  0.32988802  0.26959197     0.08400
C1699       C  0.37442295  0.33070887  0.26072452     0.09400
S1700       S  0.37832798  0.37547579  0.28776528    -0.25300
H1701       H  0.42462188  0.37758591  0.29619615     0.19700
S1702       S  0.45840817  0.31011475  0.26403889    -0.31000
H1703       H  0.41262476  0.30999340  0.25266636     0.10000
C1704       C  0.36113108  0.34144048  0.24461528     0.03200
C1705       C  0.33909454  0.33422656  0.24086141    -0.13300
C1706       C  0.33028116  0.31653173  0.25295684    -0.09000
C1707       C  0.34402911  0.30516778  0.26819861     0.06600
C1708       C  0.36588213  0.31241717  0.27197388    -0.14000
S1709       S  0.37222931  0.36424342  0.22895752    -0.31000
H1710       H  0.32851485  0.34270602  0.22901159     0.10900
S1711       S  0.33386675  0.28119139  0.28274072    -0.28100
H1712       H  0.37627735  0.30413176  0.28413175     0.08100
H1713       H  0.46701003  0.31025345  0.28578181     0.26500
H1714       H  0.35230831  0.36956292  0.21771802     0.21300
H1715       H  0.35438310  0.27502695  0.29235293     0.26700
H1716       H  0.36173547  0.35925711  0.28955206     0.15500
C1717       C  0.27553382  0.41237646  0.28094166    -0.11800
C1718       C  0.25813428  0.42766343  0.28164511     0.14800
C1719       C  0.23614053  0.42099525  0.27659995     0.01700
C1720       C  0.23194614  0.39902370  0.27152860    -0.16100
C1721       C  0.24926876  0.38353201  0.27138459    -0.11000
C1722       C  0.27143659  0.39051731  0.27551751     0.08400
C1723       C  0.26364198  0.45038620  0.28778432     0.09400
S1724       S  0.21276074  0.43960357  0.27639407    -0.25300
H1725       H  0.21492716  0.39388564  0.26819869     0.19700
S1726       S  0.29533492  0.37273549  0.27304549    -0.31000
H1727       H  0.29250282  0.41763328  0.28435473     0.10000
C1728       C  0.26837996  0.45578915  0.30992616     0.03200
C1729       C  0.27480186  0.47721767  0.31506969    -0.13300
C1730       C  0.27696004  0.49333968  0.29848162    -0.09000
C1731       C  0.27204484  0.48784412  0.27624506     0.06600
C1732       C  0.26515666  0.46648662  0.27119837    -0.14000
S1733       S  0.26631454  0.43533562  0.33161589    -0.31000
H1734       H  0.27846858  0.48140228  0.33211412     0.10900
S1735       S  0.27569582  0.50668101  0.25343466    -0.28100
H1736       H  0.26175236  0.46214029  0.25412835     0.08100
H1737       H  0.28695081  0.36122782  0.25463621     0.26500
H1738       H  0.27414534  0.44860155  0.34899632     0.21300
H1739       H  0.29567140  0.51584913  0.26157108     0.26700
H1740       H  0.22122635  0.45431903  0.29217526     0.15500
C1741       C  0.23469629  0.23118040  0.07037366    -0.11800
C1742       C  0.21959214  0.23467019  0.08764444     0.14800
C1743       C  0.19649291  0.23202007  0.08360713     0.01700
C1744       C  0.18908214  0.22568913  0.06262123    -0.16100
C1745       C  0.20408274  0.22220657  0.04522281    -0.11000
C1746       C  0.22718657  0.22502593  0.04924142     0.08400
C1747       C  0.22816452  0.24023762  0.10996673     0.09400
S1748       S  0.17558574  0.23582129  0.10464300    -0.25300
H1749       H  0.17131895  0.22355340  0.05983006     0.19700
S1750       S  0.24781402  0.21923862  0.02861818    -0.31000
H1751       H  0.25244795  0.23286813  0.07349786     0.10000
C1752       C  0.22790904  0.22467457  0.12727478     0.03200
C1753       C  0.23210792  0.23148029  0.14903390    -0.13300
C1754       C  0.23690500  0.25350704  0.15386728    -0.09000
C1755       C  0.23869450  0.26878982  0.13621185     0.06600
C1756       C  0.23442462  0.26193816  0.11445598    -0.14000
S1757       S  0.22162040  0.19625421  0.12166669    -0.31000
H1758       H  0.23106314  0.21970883  0.16249145     0.10900
S1759       S  0.24474324  0.29745210  0.14033001    -0.28100
H1760       H  0.23469820  0.27387732  0.10109020     0.08100
H1761       H  0.24211528  0.23788752  0.01599998     0.26500
H1762       H  0.22265618  0.18881159  0.14374586     0.21300
H1763       H  0.23187550  0.29964610  0.15956286     0.26700
H1764       H  0.18716542  0.25184228  0.11678537     0.15500
C1765       C  0.23025011  0.14503711  0.22406004    -0.11800
C1766       C  0.20817029  0.13747997  0.22480791     0.14800
C1767       C  0.19072739  0.15239090  0.22897001     0.01700
C1768       C  0.19565361  0.17458796  0.23173830    -0.16100
C1769       C  0.21771624  0.18223758  0.23088185    -0.11000
C1770       C  0.23520531  0.16727127  0.22686411     0.08400
C1771       C  0.20346587  0.11465406  0.21833687     0.09400
S1772       S  0.16183932  0.14415844  0.23048117    -0.25300
H1773       H  0.18218844  0.18592151  0.23508351     0.19700
S1774       S  0.26392382  0.17562821  0.22382228    -0.31000
H1775       H  0.24358488  0.13367554  0.22036613     0.10000
C1776       C  0.19589140  0.10997435  0.19681381     0.03200
C1777       C  0.19015461  0.08845464  0.19140042    -0.13300
C1778       C  0.19176024  0.07129645  0.20702445    -0.09000
C1779       C  0.19975732  0.07606267  0.22860617     0.06600
C1780       C  0.20582685  0.09764930  0.23390610    -0.14000
S1781       S  0.19368797  0.13145878  0.17613678    -0.31000
H1782       H  0.18441211  0.08498168  0.17475427     0.10900
S1783       S  0.20132079  0.05587860  0.25045200    -0.28100
H1784       H  0.21160210  0.10139008  0.25050684     0.08100
H1785       H  0.25915961  0.19618081  0.21421886     0.26500
H1786       H  0.18475312  0.11844761  0.15908039     0.21300
H1787       H  0.18087095  0.04582673  0.24500017     0.26700
H1788       H  0.16592196  0.12296570  0.23879884     0.15500
C1789       C  0.96587578  0.13518605  0.10175070    -0.11800
C1790       C  0.97858056  0.12995868  0.12064919     0.14800
C1791       C  0.99140544  0.11057771  0.12098716     0.01700
C1792       C  0.99168657  0.09720445  0.10231540    -0.16100
C1793       C  0.97899437  0.10226707  0.08333397    -0.11000
C1794       C  0.96562951  0.12138570  0.08325388     0.08400
C1795       C  0.97803099  0.14476534  0.13991636     0.09400
S1796       S  0.00796818  0.10190728  0.14455120    -0.25300
H1797       H  0.00186943  0.08253518  0.10269145     0.19700
S1798       S  0.94687910  0.12832616  0.06083286    -0.31000
H1799       H  0.95571542  0.14986709  0.10162244     0.10000
C1800       C  0.99543281  0.15973796  0.14406915     0.03200
C1801       C  0.99535392  0.17198334  0.16364703    -0.13300
C1802       C  0.97824911  0.16949427  0.17932196    -0.09000
C1803       C  0.96083004  0.15427418  0.17502712     0.06600
C1804       C  0.96073418  0.14243932  0.15524206    -0.14000
S1805       S  0.01761898  0.16341198  0.12429339    -0.31000
H1806       H  0.00854450  0.18379443  0.16658133     0.10900
S1807       S  0.93904936  0.14799457  0.19454945    -0.28100
H1808       H  0.94759873  0.13056153  0.15219807     0.08100
H1809       H  0.93980694  0.10661927  0.05725560     0.26500
H1810       H  0.03183801  0.17553301  0.13826368     0.21300
H1811       H  0.95327679  0.14837075  0.21318176     0.26700
H1812       H  0.99562800  0.11243742  0.16103339     0.15500
C1813       C  0.91309798  0.22351551  0.26419557    -0.11800
C1814       C  0.89586684  0.22658472  0.24866000     0.14800
C1815       C  0.89989892  0.22248139  0.22610958     0.01700
C1816       C  0.92102586  0.21573182  0.21949701    -0.16100
C1817       C  0.93838989  0.21231817  0.23491190    -0.11000
C1818       C  0.93420706  0.21612355  0.25763961     0.08400
C1819       C  0.87397890  0.23486675  0.25592490     0.09400
S1820       S  0.87870041  0.22554287  0.20495213    -0.25300
H1821       H  0.92383668  0.21296230  0.20202464     0.19700
S1822       S  0.95452115  0.21096732  0.27915231    -0.31000
H1823       H  0.90995973  0.22659821  0.28155446     0.10000
C1824       C  0.85795908  0.22089053  0.26564143     0.03200
C1825       C  0.83621637  0.22868019  0.26903260    -0.13300
C1826       C  0.83034429  0.25006863  0.26274582    -0.09000
C1827       C  0.84665634  0.26423897  0.25383538     0.06600
C1828       C  0.86827352  0.25651096  0.25052795    -0.14000
S1829       S  0.86474707  0.19274023  0.27211087    -0.31000
H1830       H  0.82352103  0.21787668  0.27568702     0.10900
S1831       S  0.84045523  0.29183698  0.24496923    -0.28100
H1832       H  0.88054687  0.26717339  0.24288575     0.08100
H1833       H  0.96234020  0.19136176  0.26984891     0.26500
H1834       H  0.84308945  0.18618313  0.27817244     0.21300
H1835       H  0.82562141  0.29613674  0.26228504     0.26700
H1836       H  0.86100310  0.21768527  0.21798748     0.15500
C1837       C  0.10170932  0.22464249  0.26770073    -0.11800
C1838       C  0.08908338  0.23093189  0.24905659     0.14800
C1839       C  0.09896358  0.24450573  0.23280410     0.01700
C1840       C  0.12114709  0.25129935  0.23544035    -0.16100
C1841       C  0.13395338  0.24492011  0.25396058    -0.11000
C1842       C  0.12402435  0.23136597  0.27026807     0.08400
C1843       C  0.06594730  0.22259049  0.24638017     0.09400
S1844       S  0.08414546  0.25408938  0.20846636    -0.25300
H1845       H  0.12850829  0.26174793  0.22285871     0.19700
S1846       S  0.13911098  0.22133171  0.29416546    -0.31000
H1847       H  0.09425423  0.21405105  0.28009949     0.10000
C1848       C  0.06184490  0.20216421  0.23646983     0.03200
C1849       C  0.03991999  0.19619206  0.23096477    -0.13300
C1850       C  0.02172998  0.21017989  0.23504531    -0.09000
C1851       C  0.02582700  0.23024494  0.24618890     0.06600
C1852       C  0.04791785  0.23617895  0.25163737    -0.14000
S1853       S  0.08473244  0.18428424  0.22950615    -0.31000
H1854       H  0.03703041  0.18064801  0.22288203     0.10900
S1855       S  0.00366511  0.24933577  0.25215950    -0.28100
H1856       H  0.05134472  0.25190137  0.25917358     0.08100
H1857       H  0.15979427  0.21933043  0.28348612     0.26500
H1858       H  0.07179839  0.16736535  0.22020365     0.21300
H1859       H  0.01634461  0.26366508  0.26541432     0.26700
H1860       H  0.06966989  0.23611435  0.20613397     0.15500
C1861       C  0.72332189  0.91446045  0.21613697    -0.11800
C1862       C  0.74484320  0.92364004  0.21621223     0.14800
C1863       C  0.76334621  0.90996156  0.22061893     0.01700
C1864       C  0.75996167  0.88772576  0.22522828    -0.16100
C1865       C  0.73849894  0.87829791  0.22491036    -0.11000
C1866       C  0.71999343  0.89195286  0.22001437     0.08400
C1867       C  0.74790453  0.94736423  0.21136427     0.09400
S1868       S  0.79180893  0.91976803  0.22027219    -0.25300
H1869       H  0.77439027  0.87764001  0.22891670     0.19700
S1870       S  0.69198362  0.88153182  0.21713701    -0.31000
H1871       H  0.70907816  0.92481784  0.21247779     0.10000
C1872       C  0.74524871  0.95579714  0.18970199     0.03200
C1873       C  0.75206961  0.97735779  0.18501129    -0.13300
C1874       C  0.76181478  0.99056607  0.20141012    -0.09000
C1875       C  0.76398861  0.98226352  0.22319284     0.06600
C1876       C  0.75648580  0.96100408  0.22804377    -0.14000
S1877       S  0.73505745  0.93855390  0.16759562    -0.31000
H1878       H  0.75077290  0.98368051  0.16825397     0.10900
S1879       S  0.77809595  0.99701992  0.24497268    -0.28100
H1880       H  0.75884243  0.95445192  0.24461730     0.08100
H1881       H  0.69843189  0.86267961  0.20549283     0.26500
H1882       H  0.73583046  0.95452344  0.15070763     0.21300
H1883       H  0.79398918  0.00729989  0.23136031     0.26700
H1884       H  0.78873769  0.93525819  0.20318928     0.15500
C1885       C  0.75650254  0.09855932  0.23062980    -0.11800
C1886       C  0.75755557  0.11573146  0.21507144     0.14800
C1887       C  0.76263961  0.11087778  0.19287506     0.01700
C1888       C  0.76754538  0.08929104  0.18694746    -0.16100
C1889       C  0.76699989  0.07202908  0.20252040    -0.11000
C1890       C  0.76085834  0.07680837  0.22455732     0.08400
C1891       C  0.75437949  0.13865194  0.22255008     0.09400
S1892       S  0.76340008  0.13157565  0.17141160    -0.25300
H1893       H  0.77186584  0.08596240  0.16991149     0.19700
S1894       S  0.76009257  0.05626339  0.24600707    -0.31000
H1895       H  0.75262518  0.10220084  0.24772116     0.10000
C1896       C  0.73321163  0.14658967  0.22849652     0.03200
C1897       C  0.73090477  0.16855187  0.23489786    -0.13300
C1898       C  0.74932469  0.18291101  0.23542442    -0.09000
C1899       C  0.77065954  0.17468907  0.22985919     0.06600
C1900       C  0.77286310  0.15280640  0.22328009    -0.14000
S1901       S  0.70895313  0.12901498  0.22692382    -0.31000
H1902       H  0.71452532  0.17472811  0.23899426     0.10900
S1903       S  0.79585428  0.19085755  0.23164642    -0.28100
H1904       H  0.78919661  0.14664916  0.21889691     0.08100
H1905       H  0.74244957  0.04473346  0.23587435     0.26500
H1906       H  0.69318250  0.14482116  0.23319080     0.21300
H1907       H  0.78961989  0.20191595  0.25102312     0.26700
H1908       H  0.74656894  0.14483186  0.18034611     0.15500
C1909       C  0.84092063  0.04375108  0.12775950    -0.11800
C1910       C  0.85607692  0.02639629  0.12974667     0.14800
C1911       C  0.85243225  0.00988105  0.14583618     0.01700
C1912       C  0.83366941  0.01120002  0.15950594    -0.16100
C1913       C  0.81839503  0.02860605  0.15750990    -0.11000
C1914       C  0.82196844  0.04481484  0.14104100     0.08400
C1915       C  0.87462795  0.02575899  0.11376899     0.09400
S1916       S  0.87075235  0.98666873  0.14979885    -0.25300
H1917       H  0.83114276  0.99863886  0.17201979     0.19700
S1918       S  0.80230517  0.06635944  0.13486385    -0.31000
H1919       H  0.84346041  0.05617406  0.11509692     0.10000
C1920       C  0.87349442  0.01248265  0.09479049     0.03200
C1921       C  0.89010176  0.01438560  0.07863467    -0.13300
C1922       C  0.90784647  0.02927467  0.08111199    -0.09000
C1923       C  0.90908893  0.04232543  0.10037141     0.06600
C1924       C  0.89251519  0.04036344  0.11647774    -0.14000
S1925       S  0.85053958  0.99362024  0.09085299    -0.31000
H1926       H  0.88930440  0.00424508  0.06399073     0.10900
S1927       S  0.93062201  0.06258203  0.10488261    -0.28100
H1928       H  0.89316598  0.05078881  0.13094018     0.08100
H1929       H  0.78328652  0.05313540  0.13797162     0.26500
H1930       H  0.85785886  0.98484247  0.07068004     0.21300
H1931       H  0.93200945  0.06929575  0.08261203     0.26700
H1932       H  0.88919930  0.99465383  0.13800163     0.15500
C1933       C  0.06781579  0.82181931  0.20716191    -0.11800
C1934       C  0.07299988  0.79983906  0.20297510     0.14800
C1935       C  0.05592835  0.78542459  0.19595877     0.01700
C1936       C  0.03416446  0.79339496  0.19294254    -0.16100
C1937       C  0.02926134  0.81565602  0.19608485    -0.11000
C1938       C  0.04624215  0.82987377  0.20378618     0.08400
C1939       C  0.09640903  0.79272235  0.20629558     0.09400
S1940       S  0.06111336  0.75706860  0.18959012    -0.25300
H1941       H  0.02126140  0.78241973  0.18692804     0.19700
S1942       S  0.04145407  0.85841477  0.20978904    -0.31000
H1943       H  0.08078656  0.83283825  0.21296527     0.10000
C1944       C  0.11340459  0.79993949  0.19194911     0.03200
C1945       C  0.13575019  0.79526335  0.19713944    -0.13300
C1946       C  0.14155877  0.78384682  0.21664654    -0.09000
C1947       C  0.12436514  0.77635814  0.23079571     0.06600
C1948       C  0.10201877  0.78048144  0.22523297    -0.14000
S1949       S  0.10661483  0.81555605  0.16728066    -0.31000
H1950       H  0.14884193  0.80106984  0.18628102     0.10900
S1951       S  0.12981692  0.76358384  0.25726264    -0.28100
H1952       H  0.08896033  0.77528337  0.23645311     0.08100
H1953       H  0.01920609  0.85565609  0.21659558     0.26500
H1954       H  0.12862387  0.81834397  0.15976667     0.21300
H1955       H  0.14695135  0.77826167  0.26326272     0.26700
H1956       H  0.08288864  0.76028849  0.18163182     0.15500
C1957       C  0.90793428  0.81747741  0.20886507    -0.11800
C1958       C  0.90447796  0.79486372  0.20670590     0.14800
C1959       C  0.92257882  0.78128679  0.20091218     0.01700
C1960       C  0.94356114  0.79071829  0.19690128    -0.16100
C1961       C  0.94678320  0.81348002  0.19824145    -0.11000
C1962       C  0.92885973  0.82686974  0.20501153     0.08400
C1963       C  0.88170939  0.78626999  0.21068579     0.09400
S1964       S  0.91995769  0.75197927  0.19804849    -0.25300
H1965       H  0.95719557  0.78032724  0.19172649     0.19700
S1966       S  0.93171813  0.85595634  0.20960280    -0.31000
H1967       H  0.89419902  0.82788553  0.21376213     0.10000
C1968       C  0.87553207  0.77733114  0.23132411     0.03200
C1969       C  0.85307213  0.77184299  0.23515071    -0.13300
C1970       C  0.83665999  0.77535065  0.21876445    -0.09000
C1971       C  0.84323294  0.78314032  0.19766047     0.06600
C1972       C  0.86557499  0.78871285  0.19395396    -0.14000
S1973       S  0.89598041  0.77437617  0.25323053    -0.31000
H1974       H  0.84805451  0.76614964  0.25139859     0.10900
S1975       S  0.82386697  0.78663126  0.17488534    -0.28100
H1976       H  0.87039014  0.79537448  0.17799730     0.08100
H1977       H  0.95414924  0.85506837  0.21660422     0.26500
H1978       H  0.88198756  0.76334075  0.26825492     0.21300
H1979       H  0.80902250  0.77001174  0.18162435     0.26700
H1980       H  0.89729060  0.75169708  0.19196507     0.15500
C1981       C  0.96926087  0.93991671  0.11035463    -0.11800
C1982       C  0.98507838  0.92326274  0.10752732     0.14800
C1983       C  0.99927540  0.92383334  0.08894133     0.01700
C1984       C  0.99750116  0.94114604  0.07381300    -0.16100
C1985       C  0.98161193  0.95772696  0.07655062    -0.11000
C1986       C  0.96723099  0.95703986  0.09499353     0.08400
C1987       C  0.98542620  0.90494705  0.12359378     0.09400
S1988       S  0.01987857  0.90305975  0.08338740    -0.25300
H1989       H  0.00863451  0.94169002  0.05973163     0.19700
S1990       S  0.94541020  0.97688018  0.09936993    -0.31000
H1991       H  0.95812801  0.93930660  0.12442743     0.10000
C1992       C  0.00305690  0.90206409  0.13881412     0.03200
C1993       C  0.00287066  0.88383505  0.15306195    -0.13300
C1994       C  0.98519989  0.86857734  0.15267476    -0.09000
C1995       C  0.96728580  0.87183780  0.13752001     0.06600
C1996       C  0.96766158  0.89003107  0.12326174    -0.14000
S1997       S  0.02556134  0.92178046  0.14031281    -0.31000
H1998       H  0.01647939  0.88158604  0.16472766     0.10900
S1999       S  0.94435661  0.85260511  0.13510116    -0.28100
H2000       H  0.95423730  0.89255527  0.11142922     0.08100
H2001       H  0.94016918  0.97985943  0.07681006     0.26500
H2002       H  0.03646514  0.91250066  0.15880729     0.21300
H2003       H  0.93288646  0.86321180  0.11770431     0.26700
H2004       H  0.00876985  0.88558188  0.09385093     0.15500
C2005       C  0.22561054  0.91493919  0.78239469    -0.11800
C2006       C  0.20344995  0.92117555  0.78586508     0.14800
C2007       C  0.18627008  0.90542445  0.78470504     0.01700
C2008       C  0.19164914  0.88365630  0.78055983    -0.16100
C2009       C  0.21375300  0.87729234  0.77653446    -0.11000
C2010       C  0.23099464  0.89313547  0.77789783     0.08400
C2011       C  0.19870231  0.94397924  0.79179939     0.09400
S2012       S  0.15719579  0.91213442  0.78813892    -0.25300
H2013       H  0.17830054  0.87169618  0.77977253     0.19700
S2014       S  0.26013800  0.88648825  0.77539509    -0.31000
H2015       H  0.23880841  0.92705705  0.78369504     0.10000
C2016       C  0.19528461  0.94992783  0.81397158     0.03200
C2017       C  0.18843227  0.97127923  0.81872255    -0.13300
C2018       C  0.18494493  0.98672610  0.80169040    -0.09000
C2019       C  0.18909986  0.98077387  0.77952108     0.06600
C2020       C  0.19625182  0.95954437  0.77485752    -0.14000
S2021       S  0.19936365  0.93020425  0.83608226    -0.31000
H2022       H  0.18546706  0.97590935  0.83573569     0.10900
S2023       S  0.18382728  0.99873011  0.75633241    -0.28100
H2024       H  0.19879606  0.95475785  0.75780253     0.08100
H2025       H  0.25834443  0.86633064  0.78670948     0.26500
H2026       H  0.19427482  0.94436141  0.85363361     0.21300
H2027       H  0.16357953  0.00672555  0.76471074     0.26700
H2028       H  0.15834974  0.93252655  0.77723907     0.15500
C2029       C  0.19144199  0.14574037  0.77528667    -0.11800
C2030       C  0.20874263  0.13049348  0.77738500     0.14800
C2031       C  0.23098605  0.13712432  0.77376327     0.01700
C2032       C  0.23555968  0.15925079  0.76940793    -0.16100
C2033       C  0.21829599  0.17479408  0.76826396    -0.11000
C2034       C  0.19588718  0.16774826  0.77042131     0.08400
C2035       C  0.20272083  0.10810473  0.78436790     0.09400
S2036       S  0.25417833  0.11834605  0.77513034    -0.25300
H2037       H  0.25273790  0.16443648  0.76733429     0.19700
S2038       S  0.17272512  0.18634775  0.76618931    -0.31000
H2039       H  0.17439961  0.14032947  0.77775689     0.10000
C2040       C  0.20255690  0.10219094  0.80693894     0.03200
C2041       C  0.19378493  0.08182002  0.81321113    -0.13300
C2042       C  0.18514549  0.06735218  0.79735486    -0.09000
C2043       C  0.18539710  0.07330585  0.77473508     0.06600
C2044       C  0.19436914  0.09356015  0.76846652    -0.14000
S2045       S  0.21275269  0.12090311  0.82777560    -0.31000
H2046       H  0.19341423  0.07717100  0.83054757     0.10900
S2047       S  0.17313071  0.05665466  0.75332703    -0.28100
H2048       H  0.19403627  0.09843035  0.75117404     0.08100
H2049       H  0.15560468  0.17054962  0.76706327     0.26500
H2050       H  0.20803306  0.10754039  0.84624248     0.21300
H2051       H  0.15571594  0.04829096  0.76642192     0.26700
H2052       H  0.24215985  0.09946448  0.76913553     0.15500
C2053       C  0.08845455  0.01997840  0.91719317    -0.11800
C2054       C  0.08387322  0.03043147  0.89697157     0.14800
C2055       C  0.06308164  0.04070509  0.89350239     0.01700
C2056       C  0.04750530  0.04066404  0.91056383    -0.16100
C2057       C  0.05221885  0.03094320  0.93121701    -0.11000
C2058       C  0.07276528  0.01978274  0.93421603     0.08400
C2059       C  0.10094203  0.02995587  0.87966696     0.09400
S2060       S  0.05503212  0.05404614  0.86784212    -0.25300
H2061       H  0.03158439  0.04855988  0.90767991     0.19700
S2062       S  0.07943080  0.00368323  0.95851777    -0.31000
H2063       H  0.10421797  0.01155388  0.91954535     0.10000
C2064       C  0.11716174  0.04657989  0.87814736     0.03200
C2065       C  0.13266000  0.04600319  0.86093564    -0.13300
C2066       C  0.13213050  0.02915175  0.84518496    -0.09000
C2067       C  0.11523193  0.01292960  0.84639698     0.06600
C2068       C  0.10011317  0.01328091  0.86388434    -0.14000
S2069       S  0.11786352  0.06861151  0.89800200    -0.31000
H2070       H  0.14549922  0.05848792  0.85999154     0.10900
S2071       S  0.11115688  0.99218689  0.82558488    -0.28100
H2072       H  0.08718040  0.00085891  0.86486403     0.08100
H2073       H  0.05793278  0.99450059  0.96020928     0.26500
H2074       H  0.13548139  0.08043595  0.88827356     0.21300
H2075       H  0.11713696  0.00581097  0.80767625     0.26700
H2076       H  0.07599944  0.05546464  0.85775950     0.15500
C2077       C  0.91614982  0.81124013  0.78055053    -0.11800
C2078       C  0.89839384  0.82591599  0.77737445     0.14800
C2079       C  0.90221466  0.84863577  0.77941712     0.01700
C2080       C  0.92340710  0.85613201  0.78541381    -0.16100
C2081       C  0.94109964  0.84152084  0.78919765    -0.11000
C2082       C  0.93743200  0.81877433  0.78659826     0.08400
C2083       C  0.87564589  0.81714112  0.77406796     0.09400
S2084       S  0.88066150  0.86889170  0.77512072    -0.25300
H2085       H  0.92612068  0.87361187  0.78714211     0.19700
S2086       S  0.95860923  0.79851447  0.79225602    -0.31000
H2087       H  0.91315147  0.79376451  0.77923205     0.10000
C2088       C  0.86858177  0.80868166  0.75357390     0.03200
C2089       C  0.84632517  0.80198085  0.75092509    -0.13300
C2090       C  0.83098447  0.80342100  0.76844085    -0.09000
C2091       C  0.83858182  0.81097488  0.78931464     0.06600
C2092       C  0.86066340  0.81803301  0.79174776    -0.14000
S2093       S  0.88762222  0.80742908  0.73054454    -0.31000
H2094       H  0.84069712  0.79620926  0.73491448     0.10900
S2095       S  0.82136038  0.81137983  0.81370190    -0.28100
H2096       H  0.86630296  0.82421908  0.80762315     0.08100
H2097       H  0.96807368  0.80959687  0.81040293     0.26500
H2098       H  0.87257800  0.79809314  0.71528749     0.21300
H2099       H  0.81068310  0.79131391  0.80913731     0.26700
H2100       H  0.86764820  0.85662303  0.76021257     0.15500
C2101       C  0.10259325  0.84247351  0.75489403    -0.11800
C2102       C  0.08576979  0.82656266  0.75663409     0.14800
C2103       C  0.09044396  0.80469981  0.75061719     0.01700
C2104       C  0.11220646  0.79901606  0.74451977    -0.16100
C2105       C  0.12946067  0.81461048  0.74474834    -0.11000
C2106       C  0.12431372  0.83677066  0.74898138     0.08400
C2107       C  0.06409386  0.83326118  0.76602955     0.09400
S2108       S  0.06984555  0.78310752  0.75155644    -0.25300
H2109       H  0.11603718  0.78199242  0.74120780     0.19700
S2110       S  0.14473369  0.85847968  0.74751293    -0.31000
H2111       H  0.09890933  0.85937708  0.75891161     0.10000
C2112       C  0.06232436  0.83859244  0.78863831     0.03200
C2113       C  0.04182591  0.84570121  0.79697111    -0.13300
C2114       C  0.02300460  0.84782376  0.78315011    -0.09000
C2115       C  0.02506068  0.84311111  0.76030875     0.06600
C2116       C  0.04543709  0.83551155  0.75210502    -0.14000
S2117       S  0.08605140  0.83578275  0.80707342    -0.31000
H2118       H  0.04034764  0.84923083  0.81445268     0.10900
S2119       S  0.00289925  0.84781258  0.74051749    -0.28100
H2120       H  0.04697710  0.83196273  0.73461842     0.08100
H2121       H  0.15960290  0.84762782  0.73341355     0.26500
H2122       H  0.07654131  0.84655166  0.82524830     0.21300
H2123       H  0.99489007  0.86687238  0.75077383     0.26700
H2124       H  0.05765925  0.79143009  0.76942872     0.15500
C2125       C  0.96358511  0.92010150  0.85923916    -0.11800
C2126       C  0.98113809  0.91971238  0.87465599     0.14800
C2127       C  0.99936950  0.90549458  0.87133256     0.01700
C2128       C  0.99960058  0.89201010  0.85266588    -0.16100
C2129       C  0.98189918  0.89213579  0.83728690    -0.11000
C2130       C  0.96391894  0.90682870  0.84045398     0.08400
C2131       C  0.98046907  0.93531829  0.89323610     0.09400
S2132       S  0.02282448  0.90368182  0.89019741    -0.25300
H2133       H  0.01346178  0.88085835  0.85049231     0.19700
S2134       S  0.94155577  0.91050118  0.82064366    -0.31000
H2135       H  0.94983605  0.93137645  0.86152265     0.10000
C2136       C  0.99364174  0.95445877  0.89309731     0.03200
C2137       C  0.99240651  0.96895982  0.91092318    -0.13300
C2138       C  0.97816678  0.96478982  0.92886946    -0.09000
C2139       C  0.96461823  0.94576657  0.92873006     0.06600
C2140       C  0.96603118  0.93118689  0.91097854    -0.14000
S2141       S  0.01170323  0.96062460  0.87001448    -0.31000
H2142       H  0.00270527  0.98357642  0.91098236     0.10900
S2143       S  0.94457109  0.93964881  0.95009488    -0.28100
H2144       H  0.95563389  0.91662308  0.91084672     0.08100
H2145       H  0.95512653  0.90780341  0.80192375     0.26500
H2146       H  0.02165350  0.97948268  0.87908914     0.21300
H2147       H  0.93831933  0.96156860  0.95362305     0.26700
H2148       H  0.01199762  0.91153134  0.90911376     0.15500
C2149       C  0.90409028  0.23522748  0.79074136    -0.11800
C2150       C  0.89975651  0.23609604  0.76794259     0.14800
C2151       C  0.91715789  0.23155828  0.75297087     0.01700
C2152       C  0.93816321  0.22525082  0.76124755    -0.16100
C2153       C  0.94220783  0.22333119  0.78415595    -0.11000
C2154       C  0.92509568  0.22938299  0.79898709     0.08400
C2155       C  0.87679192  0.24181060  0.76084016     0.09400
S2156       S  0.91381790  0.23323470  0.72326558    -0.25300
H2157       H  0.95117607  0.22100872  0.74966359     0.19700
S2158       S  0.92909866  0.23093789  0.82857225    -0.31000
H2159       H  0.89094870  0.23932348  0.80225480     0.10000
C2160       C  0.86003406  0.22562834  0.75947644     0.03200
C2161       C  0.83774640  0.23195003  0.75621899    -0.13300
C2162       C  0.83182946  0.25414583  0.75426402    -0.09000
C2163       C  0.84881108  0.27029456  0.75493565     0.06600
C2164       C  0.87109154  0.26393281  0.75804776    -0.14000
S2165       S  0.86701273  0.19696526  0.76250531    -0.31000
H2166       H  0.82478178  0.21960171  0.75558972     0.10900
S2167       S  0.84306441  0.29928156  0.75357608    -0.28100
H2168       H  0.88396399  0.27637652  0.75937845     0.08100
H2169       H  0.95123123  0.23861380  0.82728578     0.26500
H2170       H  0.84534808  0.18869689  0.75896075     0.21300
H2171       H  0.82318394  0.29833993  0.76580614     0.26700
H2172       H  0.89041930  0.23297186  0.72226812     0.15500
C2173       C  0.10066191  0.22414402  0.73858818    -0.11800
C2174       C  0.09011506  0.22969710  0.75849856     0.14800
C2175       C  0.10245098  0.24065170  0.77507246     0.01700
C2176       C  0.12470998  0.24615590  0.77128694    -0.16100
C2177       C  0.13551655  0.24040281  0.75157263    -0.11000
C2178       C  0.12327032  0.22919097  0.73503300     0.08400
C2179       C  0.06651154  0.22338496  0.76214834     0.09400
S2180       S  0.09091579  0.24786799  0.80159648    -0.25300
H2181       H  0.13379166  0.25487610  0.78409171     0.19700
S2182       S  0.13574563  0.21994153  0.70969986    -0.31000
H2183       H  0.09133338  0.21546103  0.72594176     0.10000
C2184       C  0.04944384  0.23922312  0.76299880     0.03200
C2185       C  0.02811520  0.23308179  0.77032321    -0.13300
C2186       C  0.02352126  0.21142186  0.77696926    -0.09000
C2187       C  0.04027523  0.19529497  0.77449881     0.06600
C2188       C  0.06156790  0.20147475  0.76728288    -0.14000
S2189       S  0.05510794  0.26741782  0.75557623    -0.31000
H2190       H  0.01528133  0.24542689  0.77191757     0.10900
S2191       S  0.03558591  0.16660324  0.78018723    -0.28100
H2192       H  0.07460862  0.18923044  0.76635954     0.08100
H2193       H  0.15609280  0.21370898  0.71963582     0.26500
H2194       H  0.03387576  0.27570255  0.76068993     0.21300
H2195       H  0.01300174  0.16670357  0.77364604     0.26700
H2196       H  0.07666971  0.22963414  0.80353836     0.15500
C2197       C  0.96354109  0.15350160  0.86534244    -0.11800
C2198       C  0.98171505  0.15513762  0.88001937     0.14800
C2199       C  0.00019586  0.16830660  0.87391128     0.01700
C2200       C  0.00021542  0.17906927  0.85333932    -0.16100
C2201       C  0.98198521  0.17750083  0.83867979    -0.11000
C2202       C  0.96349082  0.16433871  0.84483564     0.08400
C2203       C  0.98212904  0.14064396  0.89996713     0.09400
S2204       S  0.02416429  0.17233205  0.89169532    -0.25300
H2205       H  0.01440680  0.18923869  0.84900539     0.19700
S2206       S  0.93995009  0.15935134  0.82678333    -0.31000
H2207       H  0.94962754  0.14289101  0.86949319     0.10000
C2208       C  0.96533239  0.14116640  0.91633155     0.03200
C2209       C  0.96570596  0.12564993  0.93369086    -0.13300
C2210       C  0.98264462  0.10983013  0.93513769    -0.09000
C2211       C  0.00008512  0.11027067  0.91954565     0.06600
C2212       C  0.99929879  0.12514027  0.90188871    -0.14000
S2213       S  0.94356677  0.16161176  0.91531876    -0.31000
H2214       H  0.95251571  0.12546288  0.94587209     0.10900
S2215       S  0.02423552  0.09281376  0.92164993    -0.28100
H2216       H  0.01229895  0.12465143  0.88950462     0.08100
H2217       H  0.95271696  0.15830948  0.80733886     0.26500
H2218       H  0.93238566  0.15481135  0.93460275     0.21300
H2219       H  0.02410007  0.09074650  0.94486151     0.26700
H2220       H  0.01268648  0.16947060  0.91175025     0.15500
C2221       C  0.78059394  0.91078902  0.76593575    -0.11800
C2222       C  0.76332890  0.92609135  0.76331338     0.14800
C2223       C  0.74350002  0.91974418  0.75223817     0.01700
C2224       C  0.74099551  0.89799792  0.74507782    -0.16100
C2225       C  0.75762912  0.88227638  0.74925438    -0.11000
C2226       C  0.77805190  0.88909801  0.75893796     0.08400
C2227       C  0.76635805  0.94803742  0.77339799     0.09400
S2228       S  0.72032863  0.93813188  0.74776394    -0.25300
H2229       H  0.72528450  0.89296176  0.73768416     0.19700
S2230       S  0.80137100  0.87079823  0.76318919    -0.31000
H2231       H  0.79601083  0.91568142  0.77402174     0.10000
C2232       C  0.76446018  0.95081574  0.79647542     0.03200
C2233       C  0.76947208  0.97121957  0.80588613    -0.13300
C2234       C  0.77620163  0.98903867  0.79271517    -0.09000
C2235       C  0.77769083  0.98635994  0.76951570     0.06600
C2236       C  0.77259726  0.96594404  0.76010116    -0.14000
S2237       S  0.75544857  0.92836394  0.81393492    -0.31000
H2238       H  0.76816497  0.97335920  0.82362182     0.10900
S2239       S  0.78719377  0.00787012  0.75122290    -0.28100
H2240       H  0.77423089  0.96378004  0.74238800     0.08100
H2241       H  0.79622893  0.85692785  0.74532656     0.26500
H2242       H  0.75817150  0.93918715  0.83428188     0.21300
H2243       H  0.80250999  0.01715028  0.76623721     0.26700
H2244       H  0.72450471  0.95203022  0.76578109     0.15500
C2245       C  0.77062383  0.15001106  0.78711808    -0.11800
C2246       C  0.75300123  0.13532318  0.78350934     0.14800
C2247       C  0.73278444  0.14312811  0.77432707     0.01700
C2248       C  0.73070395  0.16545293  0.76899165    -0.16100
C2249       C  0.74829912  0.18036461  0.77281622    -0.11000
C2250       C  0.76868400  0.17222666  0.78160547     0.08400
C2251       C  0.75665743  0.11200509  0.78937189     0.09400
S2252       S  0.70905853  0.12557528  0.76905800    -0.25300
H2253       H  0.71496914  0.17128949  0.76227910     0.19700
S2254       S  0.79333601  0.18887646  0.78507385    -0.31000
H2255       H  0.78627478  0.14396636  0.79385843     0.10000
C2256       C  0.76286259  0.09646945  0.77337948     0.03200
C2257       C  0.76841304  0.07508000  0.78013383    -0.13300
C2258       C  0.76808298  0.06901473  0.80259556    -0.09000
C2259       C  0.76082329  0.08439799  0.81843877     0.06600
C2260       C  0.75542131  0.10572421  0.81168107    -0.14000
S2261       S  0.76505054  0.10424223  0.74458351    -0.31000
H2262       H  0.77419973  0.06338797  0.76804102     0.10900
S2263       S  0.75806017  0.07790027  0.84747909    -0.28100
H2264       H  0.75043277  0.11763102  0.82393861     0.08100
H2265       H  0.79033064  0.20019928  0.76490785     0.26500
H2266       H  0.76889491  0.08303496  0.73642574     0.21300
H2267       H  0.75316391  0.05555166  0.84445071     0.26700
H2268       H  0.71406408  0.10945551  0.78502804     0.15500
C2269       C  0.85327739  0.04435750  0.86724597    -0.11800
C2270       C  0.85326058  0.02742281  0.88301483     0.14800
C2271       C  0.83756278  0.01022340  0.88108038     0.01700
C2272       C  0.82215743  0.01047055  0.86350676    -0.16100
C2273       C  0.82181304  0.02771060  0.84796055    -0.11000
C2274       C  0.83803038  0.04454654  0.84962301     0.08400
C2275       C  0.87040665  0.02806320  0.90073620     0.09400
S2276       S  0.83633130  0.98754274  0.90035768    -0.25300
H2277       H  0.80993959  0.99739242  0.86231704     0.19700
S2278       S  0.84105484  0.06605990  0.82922485    -0.31000
H2279       H  0.86564831  0.05730495  0.86842518     0.10000
C2280       C  0.89085988  0.01698511  0.89859059     0.03200
C2281       C  0.90742772  0.01958595  0.91490977    -0.13300
C2282       C  0.90392848  0.03299756  0.93343702    -0.09000
C2283       C  0.88329447  0.04406843  0.93547311     0.06600
C2284       C  0.86679064  0.04138253  0.91918736    -0.14000
S2285       S  0.89592891  0.99979467  0.87490244    -0.31000
H2286       H  0.92310899  0.01094867  0.91336534     0.10900
S2287       S  0.87733395  0.06269463  0.95775728    -0.28100
H2288       H  0.85115263  0.05014620  0.92062524     0.08100
H2289       H  0.83566872  0.05274546  0.81099730     0.26500
H2290       H  0.91704513  0.99216549  0.88170754     0.21300
H2291       H  0.89903951  0.07149450  0.95896311     0.26700
H2292       H  0.84477750  0.99882821  0.91881758     0.15500
C2293       C  0.23437485  0.82392603  0.11355801    -0.11800
C2294       C  0.21232937  0.82227589  0.10581760     0.14800
C2295       C  0.19543374  0.81521419  0.12047116     0.01700
C2296       C  0.20086104  0.81049804  0.14257449    -0.16100
C2297       C  0.22293144  0.81212939  0.15035811    -0.11000
C2298       C  0.23980760  0.81919082  0.13566899     0.08400
C2299       C  0.20719148  0.82986652  0.08300178     0.09400
S2300       S  0.16667381  0.81197953  0.11201932    -0.25300
H2301       H  0.18781617  0.80501537  0.15368582     0.19700
S2302       S  0.26824715  0.82380888  0.14441517    -0.31000
H2303       H  0.24729799  0.82973029  0.10247814     0.10000
C2304       C  0.19663009  0.85012957  0.07920104     0.03200
C2305       C  0.19154492  0.85663166  0.05747901    -0.13300
C2306       C  0.19670004  0.84334175  0.03923066    -0.09000
C2307       C  0.20748916  0.82300440  0.04317497     0.06600
C2308       C  0.21291481  0.81670453  0.06494678    -0.14000
S2309       S  0.18993055  0.86792753  0.10204000    -0.31000
H2310       H  0.18353073  0.87230459  0.05471313     0.10900
S2311       S  0.21361587  0.80374301  0.02156636    -0.28100
H2312       H  0.22101582  0.80108207  0.06792129     0.08100
H2313       H  0.26289464  0.83087986  0.16586722     0.26500
H2314       H  0.18057881  0.88504788  0.08935448     0.21300
H2315       H  0.19291263  0.80635212  0.01073878     0.26700
H2316       H  0.17107297  0.80694459  0.08979001     0.15500
C2317       C  0.21432615  0.85264324  0.91833397    -0.11800
C2318       C  0.22093296  0.83069583  0.91664170     0.14800
C2319       C  0.22222954  0.81766585  0.93603955     0.01700
C2320       C  0.21490716  0.82626344  0.95620957    -0.16100
C2321       C  0.20672226  0.84780626  0.95762976    -0.11000
C2322       C  0.20766400  0.86143904  0.93858187     0.08400
C2323       C  0.22444727  0.82170671  0.89415805     0.09400
S2324       S  0.23217599  0.78975853  0.93604334    -0.25300
H2325       H  0.21474351  0.81569076  0.97068276     0.19700
S2326       S  0.20087647  0.89022157  0.93895179    -0.31000
H2327       H  0.21388502  0.86290168  0.90361263     0.10000
C2328       C  0.20854312  0.80765491  0.88433280     0.03200
C2329       C  0.21111781  0.80139938  0.86221012    -0.13300
C2330       C  0.22917354  0.80894255  0.84955360    -0.09000
C2331       C  0.24516063  0.82294429  0.85942259     0.06600
C2332       C  0.24270647  0.82903880  0.88163848    -0.14000
S2333       S  0.18424202  0.79864143  0.89948902    -0.31000
H2334       H  0.19880132  0.79080322  0.85455208     0.10900
S2335       S  0.26812025  0.83470766  0.84423592    -0.28100
H2336       H  0.25470048  0.84017560  0.88903082     0.08100
H2337       H  0.20872408  0.89365646  0.96067518     0.26500
H2338       H  0.17576116  0.78441946  0.88320956     0.21300
H2339       H  0.25647435  0.83697220  0.82405016     0.26700
H2340       H  0.24484518  0.79141271  0.91659945     0.15500
C2341       C  0.10671572  0.89479115  0.00493205    -0.11800
C2342       C  0.10798665  0.91514994  0.99415165     0.14800
C2343       C  0.12764947  0.92087718  0.98262903     0.01700
C2344       C  0.14567769  0.90625390  0.98249896    -0.16100
C2345       C  0.14455828  0.88605225  0.99371409    -0.11000
C2346       C  0.12461668  0.88014841  0.00466953     0.08400
C2347       C  0.08910674  0.93052621  0.99662875     0.09400
S2348       S  0.13107230  0.94677184  0.96839196    -0.25300
H2349       H  0.16092684  0.91095135  0.97413161     0.19700
S2350       S  0.12079293  0.85405710  0.01834787    -0.31000
H2351       H  0.09166760  0.89035288  0.01378622     0.10000
C2352       C  0.06842700  0.92704484  0.98592339     0.03200
C2353       C  0.05098306  0.94204939  0.98902820    -0.13300
C2354       C  0.05378852  0.96036929  0.00279614    -0.09000
C2355       C  0.07426268  0.96310145  0.01432511     0.06600
C2356       C  0.09172808  0.94841973  0.01081503    -0.14000
S2357       S  0.06459661  0.90402833  0.96760117    -0.31000
H2358       H  0.03537651  0.93990283  0.98015149     0.10900
S2359       S  0.07891592  0.98437474  0.03447906    -0.28100
H2360       H  0.10741467  0.95070546  0.01955396     0.08100
H2361       H  0.13352113  0.84206076  0.00314281     0.26500
H2362       H  0.04173776  0.90738776  0.96335178     0.21300
H2363       H  0.05701373  0.98386900  0.04275001     0.26700
H2364       H  0.10831958  0.95080194  0.96434676     0.15500
C2365       C  0.73181069  0.23360496  0.07407487    -0.11800
C2366       C  0.74685534  0.24182622  0.08990330     0.14800
C2367       C  0.76966031  0.24374493  0.08439369     0.01700
C2368       C  0.77704220  0.23666371  0.06368855    -0.16100
C2369       C  0.76211356  0.22803156  0.04795044    -0.11000
C2370       C  0.73920854  0.22652466  0.05329130     0.08400
C2371       C  0.73911817  0.24557808  0.11290413     0.09400
S2372       S  0.79018689  0.25474033  0.10331028    -0.25300
H2373       H  0.79464034  0.23794056  0.05980662     0.19700
S2374       S  0.71898300  0.21398422  0.03512218    -0.31000
H2375       H  0.71437586  0.23167386  0.07835651     0.10000
C2376       C  0.72649589  0.26409783  0.11886378     0.03200
C2377       C  0.72188684  0.26791529  0.14137815    -0.13300
C2378       C  0.72965485  0.25350491  0.15800415    -0.09000
C2379       C  0.74068972  0.23403011  0.15161530     0.06600
C2380       C  0.74555299  0.23051078  0.12931656    -0.14000
S2381       S  0.71762929  0.28356701  0.09798212    -0.31000
H2382       H  0.71330329  0.28274569  0.14612407     0.10900
S2383       S  0.74899958  0.21289787  0.17103948    -0.28100
H2384       H  0.75473565  0.21596205  0.12469560     0.08100
H2385       H  0.73327787  0.19720972  0.02798190     0.26500
H2386       H  0.70622535  0.29769958  0.11232000     0.21300
H2387       H  0.73114598  0.21621560  0.18566875     0.26700
H2388       H  0.77566752  0.26959742  0.11355671     0.15500
C2389       C  0.76708928  0.23509652  0.92722602    -0.11800
C2390       C  0.74433244  0.23209271  0.92268683     0.14800
C2391       C  0.72988350  0.22589044  0.94011597     0.01700
C2392       C  0.73869678  0.22256495  0.96151985    -0.16100
C2393       C  0.76165581  0.22492968  0.96583312    -0.11000
C2394       C  0.77582487  0.23186625  0.94849177     0.08400
C2395       C  0.73675847  0.23569277  0.89950303     0.09400
S2396       S  0.70031262  0.22135901  0.93624458    -0.25300
H2397       H  0.72770769  0.21721758  0.97468877     0.19700
S2398       S  0.80516439  0.23745557  0.95246232    -0.31000
H2399       H  0.77816480  0.24022583  0.91403221     0.10000
C2400       C  0.72554865  0.25498974  0.89296168     0.03200
C2401       C  0.72132227  0.25892324  0.87037481    -0.13300
C2402       C  0.72870552  0.24428110  0.85410783    -0.09000
C2403       C  0.73912538  0.22450843  0.86081753     0.06600
C2404       C  0.74314039  0.22053635  0.88335648    -0.14000
S2405       S  0.71814183  0.27536184  0.91318859    -0.31000
H2406       H  0.71344863  0.27411327  0.86526804     0.10900
S2407       S  0.74786033  0.20378196  0.84150465    -0.28100
H2408       H  0.75177132  0.20569407  0.88835901     0.08100
H2409       H  0.80311608  0.24509998  0.97428974     0.26500
H2410       H  0.71107951  0.29155839  0.89802509     0.21300
H2411       H  0.73130197  0.20826275  0.82549108     0.26700
H2412       H  0.70022789  0.21919668  0.91311898     0.15500
C2413       C  0.85386830  0.17256148  0.02358888    -0.11800
C2414       C  0.85358024  0.15416885  0.00980294     0.14800
C2415       C  0.83548191  0.15101819  0.99505247     0.01700
C2416       C  0.81798792  0.16619522  0.99465534    -0.16100
C2417       C  0.81808852  0.18454018  0.00861814    -0.11000
C2418       C  0.83652615  0.18789358  0.02297328     0.08400
C2419       C  0.87230262  0.13850266  0.01133817     0.09400
S2420       S  0.83328766  0.12778058  0.97674425    -0.25300
H2421       H  0.80396513  0.16344769  0.98357596     0.19700
S2422       S  0.83946110  0.21176216  0.04021958    -0.31000
H2423       H  0.86788058  0.17510805  0.03473222     0.10000
C2424       C  0.89248555  0.14236657  0.00013174     0.03200
C2425       C  0.90931792  0.12643569  0.00089293    -0.13300
C2426       C  0.90647575  0.10681704  0.01289908    -0.09000
C2427       C  0.88679295  0.10380579  0.02543327     0.06600
C2428       C  0.86975055  0.11941771  0.02409283    -0.14000
S2429       S  0.89643781  0.16723574  0.98422620    -0.31000
H2430       H  0.92448906  0.12898344  0.99156536     0.10900
S2431       S  0.88282766  0.08105955  0.04424904    -0.28100
H2432       H  0.85446048  0.11681544  0.03324955     0.08100
H2433       H  0.82967934  0.22637068  0.02488632     0.26500
H2434       H  0.91779583  0.16217274  0.97620482     0.21300
H2435       H  0.90539552  0.07966844  0.05067178     0.26700
H2436       H  0.85610600  0.12277689  0.97554308     0.15500
C2437       C  0.76607504  0.82218588  0.11956240    -0.11800
C2438       C  0.76852599  0.80417091  0.10543822     0.14800
C2439       C  0.76474668  0.78282044  0.11376628     0.01700
C2440       C  0.75835046  0.77999013  0.13583973    -0.16100
C2441       C  0.75628325  0.79795198  0.15014523    -0.11000
C2442       C  0.75977116  0.81935216  0.14169681     0.08400
C2443       C  0.77570054  0.80820207  0.08234412     0.09400
S2444       S  0.76844691  0.75849107  0.09734718    -0.25300
H2445       H  0.75579647  0.76349765  0.14213271     0.19700
S2446       S  0.75558529  0.84368406  0.15797818    -0.31000
H2447       H  0.76885860  0.83861129  0.11319131     0.10000
C2448       C  0.76101514  0.80583563  0.06415126     0.03200
C2449       C  0.76878600  0.81012452  0.04262438    -0.13300
C2450       C  0.79088279  0.81694046  0.03901246    -0.09000
C2451       C  0.80570025  0.81848136  0.05730401     0.06600
C2452       C  0.79787466  0.81442859  0.07868711    -0.14000
S2453       S  0.73214959  0.79847392  0.06845617    -0.31000
H2454       H  0.75739368  0.80910855  0.02867424     0.10900
S2455       S  0.83494412  0.82496722  0.05449483    -0.28100
H2456       H  0.80925755  0.81586203  0.09263566     0.08100
H2457       H  0.73725726  0.83530343  0.16981591     0.26500
H2458       H  0.72609951  0.79725467  0.04594825     0.21300
H2459       H  0.83742214  0.81467472  0.03386941     0.26700
H2460       H  0.78542101  0.76691061  0.08375608     0.15500
C2461       C  0.80107918  0.79689346  0.91969128    -0.11800
C2462       C  0.77906755  0.78968847  0.91661018     0.14800
C2463       C  0.76434085  0.78974383  0.93477680     0.01700
C2464       C  0.77125016  0.79899355  0.95494049    -0.16100
C2465       C  0.79286646  0.80769250  0.95755926    -0.11000
C2466       C  0.80823723  0.80543846  0.94000907     0.08400
C2467       C  0.77112868  0.78589297  0.89361225     0.09400
S2468       S  0.73626906  0.77922115  0.93275111    -0.25300
H2469       H  0.75940732  0.80013034  0.96837145     0.19700
S2470       S  0.83724926  0.81300344  0.94250253    -0.31000
H2471       H  0.81258606  0.79651601  0.90592000     0.10000
C2472       C  0.76033842  0.80284873  0.88181946     0.03200
C2473       C  0.75456122  0.79980719  0.85956571    -0.13300
C2474       C  0.75952040  0.78022266  0.84851531    -0.09000
C2475       C  0.77040983  0.76319017  0.86033596     0.06600
C2476       C  0.77601115  0.76616870  0.88277982    -0.14000
S2477       S  0.75445703  0.82874427  0.89492420    -0.31000
H2478       H  0.74610074  0.81285752  0.85066336     0.10900
S2479       S  0.77875775  0.73796096  0.84745688    -0.28100
H2480       H  0.78473858  0.75328671  0.89170086     0.08100
H2481       H  0.83910568  0.80743100  0.96509004     0.26500
H2482       H  0.74926482  0.84041904  0.87540093     0.21300
H2483       H  0.78475575  0.74769518  0.82715763     0.26700
H2484       H  0.74095173  0.76358029  0.91641649     0.15500
C2485       C  0.83670681  0.90904777  0.00556025    -0.11800
C2486       C  0.85642042  0.90912402  0.99317739     0.14800
C2487       C  0.86131769  0.89090211  0.97972637     0.01700
C2488       C  0.84701273  0.87268013  0.97973283    -0.16100
C2489       C  0.82771430  0.87222141  0.99279719    -0.11000
C2490       C  0.82223960  0.89097049  0.00535998     0.08400
C2491       C  0.87263106  0.92728974  0.99642533     0.09400
S2492       S  0.88592293  0.88970498  0.96273873    -0.25300
H2493       H  0.85139042  0.85845868  0.97001964     0.19700
S2494       S  0.79707082  0.89294034  0.02145534    -0.31000
H2495       H  0.83279503  0.92302440  0.01582127     0.10000
C2496       C  0.86872091  0.94863793  0.98821480     0.03200
C2497       C  0.88484039  0.96508097  0.99165962    -0.13300
C2498       C  0.90476116  0.96068638  0.00333475    -0.09000
C2499       C  0.90797750  0.93947680  0.01250973     0.13600
C2500       C  0.89214686  0.92303220  0.00860384    -0.14000
S2501       S  0.84374599  0.95469000  0.97245311    -0.31000
H2502       H  0.88223763  0.98124149  0.98460049     0.10900
S2503       S  0.93133472  0.93248292  0.03018005    -0.28100
H2504       H  0.89486566  0.90678387  0.01546333     0.08100
H2505       H  0.78388780  0.88013399  0.00712851     0.26500
H2506       H  0.84747976  0.97738215  0.97026245     0.21300
H2507       H  0.93226548  0.95296430  0.04076541     0.26700
H2508       H  0.88718754  0.91237731  0.95853789     0.15500
loop_ 
_geom_bond_atom_site_label_1 
_geom_bond_atom_site_label_2 
_geom_bond_distance 
_geom_bond_site_symmetry_2 
_ccdc_geom_bond_type 
C1            N2   1.356       .  A
C1            N6   1.362   1_554  A
C1         C2450   1.480       .  S
N2            C3   1.354   1_554  A
C3            N4   1.359       .  A
C3         C2489   1.482       .  S
N4            C5   1.363       .  A
C5            N6   1.363       .  A
C5         C2465   1.487       .  S
C7            N8   1.359       .  A
C7           N12   1.364       .  A
C7         C2369   1.483       .  S
N8            C9   1.357       .  A
C9           N10   1.356   1_554  A
C9         C2417   1.480       .  S
N10          C11   1.358       .  A
C11          N12   1.363   1_556  A
C11        C2393   1.482       .  S
C13          N14   1.362   1_554  A
C13          N18   1.357       .  A
C13        C2306   1.489       .  S
N14          C15   1.364       .  A
C15          N16   1.361       .  A
C15        C2321   1.487       .  S
N16          C17   1.356       .  A
C17          N18   1.354   1_556  A
C17        C2345   1.477       .  S
C19          N20   1.357       .  A
C19          N24   1.361       .  A
C19        C2258   1.478       .  S
N20          C21   1.356       .  A
C21          N22   1.358       .  A
C21        C2273   1.481       .  S
N22          C23   1.360       .  A
C23          N24   1.362       .  A
C23        C2234   1.478   1_545  S
C25          N26   1.357       .  A
C25          N30   1.361       .  A
C25        C2153   1.485       .  S
N26          C27   1.355       .  A
C27          N28   1.359   1_655  A
C27        C2201   1.486       .  S
N28          C29   1.362       .  A
C29          N30   1.363   1_455  A
C29        C2186   1.484       .  S
C31          N32   1.355       .  A
C31          N36   1.358       .  A
C31        C2081   1.474       .  S
N32          C33   1.355       .  A
C33          N34   1.359   1_655  A
C33        C2129   1.481       .  S
N34          C35   1.361       .  A
C35          N36   1.360   1_455  A
C35        C2114   1.481       .  S
C37          N38   1.358       .  A
C37          N42   1.356       .  A
C37        C2042   1.466       .  S
N38          C39   1.359       .  A
C39          N40   1.355       .  A
C39        C2018   1.471   1_545  S
N40          C41   1.353       .  A
C41          N42   1.355       .  A
C41        C2066   1.473       .  S
C43          N44   1.356       .  A
C43          N48   1.361       .  A
C43        C1961   1.477       .  S
N44          C45   1.354       .  A
C45          N46   1.357   1_655  A
C45        C1994   1.485       .  S
N46          C47   1.359       .  A
C47          N48   1.362   1_455  A
C47        C1937   1.476       .  S
C49          N50   1.364       .  A
C49          N54   1.359       .  A
C49        C1889   1.489       .  S
N50          C51   1.363       .  A
C51          N52   1.357       .  A
C51        C1874   1.475   1_545  S
N52          C53   1.355       .  A
C53          N54   1.356       .  A
C53        C1913   1.482       .  S
C55          N56   1.363       .  A
C55          N60   1.357       .  A
C55        C1817   1.484       .  S
N56          C57   1.363       .  A
C57          N58   1.361       .  A
C57        C1850   1.495   1_655  S
N58          C59   1.357       .  A
C59          N60   1.353       .  A
C59        C1802   1.485       .  S
Zr61         O62   2.441       .  S
Zr61         O63   2.418       .  S
Zr61         O64   2.430       .  S
Zr61         O67   2.418       .  S
Zr61         O69   2.378       .  S
Zr61         O70   2.382       .  S
Zr61         O71   2.402       .  S
Zr61         O72   2.399       .  S
O62         H118   0.991       .  S
O62         H126   0.990       .  S
O63          C83   1.280       .  A
O64          C85   1.283       .  A
O65         Zr75   2.449       .  S
O65          C84   1.286       .  A
O66         Zr74   2.446       .  S
O66          C85   1.286       .  A
O67          C84   1.282       .  A
O68         Zr76   2.416       .  S
O68          C83   1.280       .  A
O69         Zr74   2.400       .  S
O69         Zr76   2.381       .  S
O70         Zr75   2.399       .  S
O70         Zr76   2.376       .  S
O70         H105   0.966       .  S
O71         Zr74   2.406       .  S
O71         Zr91   2.386       .  S
O71         H108   0.965       .  S
O72         Zr75   2.397       .  S
O72         Zr91   2.394       .  S
Zr73         O98   2.446       .  S
Zr73         O92   2.427       .  S
Zr73        O100   2.423       .  S
Zr73         O88   2.424       .  S
Zr73         O79   2.397       .  S
Zr73         O80   2.399       .  S
Zr73         O81   2.377       .  S
Zr73         O82   2.382       .  S
Zr74         O93   2.436       .  S
Zr74         O86   2.435       .  S
Zr74         O87   2.448       .  S
Zr74         O80   2.397       .  S
Zr74         O81   2.391       .  S
Zr75         O77   2.435       .  S
Zr75         O99   2.439       .  S
Zr75        O101   2.456       .  S
Zr75         O79   2.395       .  S
Zr75         O82   2.385       .  S
Zr76        O102   2.435       .  S
Zr76        O103   2.435       .  S
Zr76         O78   2.436       .  S
Zr76         O79   2.393       .  S
Zr76         O80   2.393       .  S
O77         H114   0.990       .  S
O78         H109   0.990       .  S
O78         H123   0.990       .  S
O80         H106   0.966       .  S
O81         Zr91   2.377       .  S
O82         Zr91   2.377       .  S
O82         H107   0.966       .  S
C83        C1721   1.474       .  S
C84        C1673   1.477       .  S
C85        C1706   1.474       .  S
O86         H122   0.990       .  S
O87          C89   1.287       .  A
O88          C89   1.284       .  A
C89        C1754   1.480       .  S
O90         Zr91   2.440       .  S
O90         H119   0.990       .  S
Zr91         O94   2.436       .  S
Zr91         O95   2.439       .  S
Zr91         O96   2.417       .  S
O92          C97   1.284       .  A
O93         H110   0.990       .  S
O93         H125   0.990       .  S
O94         H111   0.990       .  S
O95         H115   0.990       .  S
O95         H124   0.990       .  S
O96          C97   1.281       .  A
C97        C1769   1.470       .  S
O98         H117   0.990       .  S
O98         H121   0.990       .  S
O99         H113   0.989       .  S
O99         H120   0.990       .  S
O100        C104   1.284       .  A
O101        C104   1.289       .  A
O102        H112   0.990       .  S
O103        H116   0.990       .  S
C104       C1841   1.484       .  S
C127        N128   1.362       .  A
C127        N132   1.357       .  A
C127       C1778   1.485       .  S
N128        C129   1.364       .  A
C129        N130   1.360       .  A
C129       C1649   1.484   1_545  S
N130        C131   1.356       .  A
C131        N132   1.353       .  A
C131       C1625   1.486       .  S
Zr133       O134   2.439       .  S
Zr133       O135   2.439       .  S
Zr133       O136   2.429       .  S
Zr133       O139   2.409       .  S
Zr133       O141   2.375       .  S
Zr133       O142   2.377       .  S
Zr133       O143   2.402       .  S
Zr133       O144   2.405       .  S
O134        H190   0.991       .  S
O134        H198   0.990       .  S
O135        C155   1.285       .  A
O136        C157   1.283       .  A
O137       Zr147   2.459       .  S
O137        C156   1.289       .  A
O138       Zr146   2.443       .  S
O138        C157   1.286       .  A
O139        C156   1.281       .  A
O140       Zr148   2.428       .  S
O140        C155   1.283       .  A
O141       Zr146   2.400       .  S
O141       Zr148   2.380       .  S
O142       Zr147   2.389       .  S
O142       Zr148   2.374       .  S
O142        H177   0.966       .  S
O143       Zr146   2.397       .  S
O143       Zr163   2.399       .  S
O143        H180   0.966       .  S
O144       Zr147   2.394       .  S
O144       Zr163   2.402       .  S
Zr145       O170   2.445       .  S
Zr145       O164   2.426       .  S
Zr145       O172   2.415       .  S
Zr145       O160   2.417       .  S
Zr145       O151   2.397       .  S
Zr145       O152   2.400       .  S
Zr145       O153   2.374       .  S
Zr145       O154   2.379       .  S
Zr146       O165   2.437       .  S
Zr146       O158   2.433       .  S
Zr146       O159   2.446       .  S
Zr146       O152   2.399       .  S
Zr146       O153   2.389       .  S
Zr147       O149   2.435       .  S
Zr147       O171   2.438       .  S
Zr147       O173   2.450       .  S
Zr147       O151   2.397       .  S
Zr147       O154   2.389       .  S
Zr148       O174   2.435       .  S
Zr148       O175   2.436       .  S
Zr148       O150   2.437       .  S
Zr148       O151   2.394       .  S
Zr148       O152   2.397       .  S
O149        H186   0.990       .  S
O150        H181   0.990       .  S
O150        H195   0.990       .  S
O152        H178   0.965       .  S
O153       Zr163   2.371       .  S
O154       Zr163   2.376       .  S
O154        H179   0.966       .  S
C155       C1562   1.484       .  S
C156       C1577   1.485       .  S
C157       C1610   1.480       .  S
O158        H194   0.990       .  S
O159        C161   1.287       .  A
O160        C161   1.283       .  A
C161       C1658   1.482       .  S
O162       Zr163   2.438       .  S
O162        H191   0.990       .  S
Zr163       O166   2.436       .  S
Zr163       O167   2.439       .  S
Zr163       O168   2.438       .  S
O164        C169   1.283       .  A
O165        H182   0.990       .  S
O165        H197   0.990       .  S
O166        H183   0.990       .  S
O167        H187   0.990       .  S
O167        H196   0.990       .  S
O168        C169   1.285       .  A
C169       C2297   1.478       .  S
O170        H189   0.990       .  S
O170        H193   0.990       .  S
O171        H185   0.990       .  S
O171        H192   0.990       .  S
O172        C176   1.282       .  A
O173        C176   1.288       .  A
O174        H184   0.990       .  S
O175        H188   0.990       .  S
C176       C1946   1.482       .  S
Zr199       O200   2.440       .  S
Zr199       O201   2.432       .  S
Zr199       O202   2.428       .  S
Zr199       O205   2.419       .  S
Zr199       O207   2.379       .  S
Zr199       O208   2.380       .  S
Zr199       O209   2.404       .  S
Zr199       O210   2.398       .  S
O200        H256   0.990       .  S
O200        H264   0.990       .  S
O201        C221   1.284       .  A
O202        C223   1.282       .  A
O203       Zr213   2.453       .  S
O203        C222   1.289       .  A
O204       Zr212   2.431       .  S
O204        C223   1.283       .  A
O205        C222   1.283       .  A
O206       Zr214   2.430       .  S
O206        C221   1.284       .  A
O207       Zr212   2.394       .  S
O207       Zr214   2.376       .  S
O208       Zr213   2.392       .  S
O208       Zr214   2.373       .  S
O208        H243   0.966       .  S
O209       Zr212   2.400       .  S
O209       Zr229   2.393       .  S
O209        H246   0.965       .  S
O210       Zr213   2.392       .  S
O210       Zr229   2.392       .  S
Zr211       O236   2.439       .  S
Zr211       O230   2.434       .  S
Zr211       O238   2.426       .  S
Zr211       O226   2.429       .  S
Zr211       O217   2.405       .  S
Zr211       O218   2.402       .  S
Zr211       O219   2.374       .  S
Zr211       O220   2.381       .  S
Zr212       O231   2.437       .  S
Zr212       O224   2.436       .  S
Zr212       O225   2.437       .  S
Zr212       O218   2.394       .  S
Zr212       O219   2.393       .  S
Zr213       O215   2.435       .  S
Zr213       O237   2.437       .  S
Zr213       O239   2.438       .  S
Zr213       O217   2.404       .  S
Zr213       O220   2.398       .  S
Zr214       O240   2.434       .  S
Zr214       O241   2.436       .  S
Zr214       O216   2.436       .  S
Zr214       O217   2.399       .  S
Zr214       O218   2.394       .  S
O215        H252   0.990       .  S
O216        H247   0.990       .  S
O216        H261   0.990       .  S
O218        H244   0.965       .  S
O219       Zr229   2.380       .  S
O220       Zr229   2.381       .  S
O220        H245   0.966       .  S
C221       C1898   1.487       .  S
C222       C2378   1.487       .  S
C223       C1826   1.465       .  S
O224        H260   0.990       .  S
O225        C227   1.284       .  A
O226        C227   1.284       .  A
C227       C1490   1.480       .  S
O228       Zr229   2.439       .  S
O228        H257   0.990       .  S
Zr229       O232   2.437       .  S
Zr229       O233   2.440       .  S
Zr229       O234   2.415       .  S
O230        C235   1.283       .  A
O231        H248   0.990       .  S
O231        H263   0.989       .  S
O232        H249   0.990       .  S
O233        H253   0.990       .  S
O233        H262   0.989       .  S
O234        C235   1.281       .  A
C235       C1505   1.478       .  S
O236        H255   0.990       .  S
O236        H259   0.989       .  S
O237        H251   0.990       .  S
O237        H258   0.990       .  S
O238        C242   1.282       .  A
O239        C242   1.284       .  A
O240        H250   0.990       .  S
O241        H254   0.990       .  S
C242       C1529   1.476       .  S
Zr265       O266   2.440       .  S
Zr265       O267   2.423       .  S
Zr265       O268   2.429       .  S
Zr265       O271   2.415       .  S
Zr265       O273   2.376       .  S
Zr265       O274   2.383       .  S
Zr265       O275   2.400       .  S
Zr265       O276   2.400       .  S
O266        H322   0.990       .  S
O266        H330   0.990       .  S
O267        C287   1.282       .  A
O268        C289   1.284       .  A
O269       Zr279   2.451       .  S
O269        C288   1.288       .  A
O270       Zr278   2.446       .  S
O270        C289   1.287       .  A
O271        C288   1.282       .  A
O272       Zr280   2.433       .  S
O272        C287   1.283       .  A
O273       Zr278   2.396       .  S
O273       Zr280   2.375       .  S
O274       Zr279   2.394       .  S
O274       Zr280   2.373       .  S
O274        H309   0.966       .  S
O275       Zr278   2.398       .  S
O275       Zr295   2.395       .  S
O275        H312   0.966       .  S
O276       Zr279   2.394       .  S
O276       Zr295   2.391       .  S
Zr277       O302   2.449       .  S
Zr277       O296   2.437       .  S
Zr277       O304   2.420       .  S
Zr277       O292   2.423       .  S
Zr277       O283   2.399       .  S
Zr277       O284   2.403       .  S
Zr277       O285   2.376       .  S
Zr277       O286   2.381       .  S
Zr278       O297   2.434       .  S
Zr278       O290   2.434       .  S
Zr278       O291   2.447       .  S
Zr278       O284   2.397       .  S
Zr278       O285   2.388       .  S
Zr279       O281   2.435       .  S
Zr279       O303   2.437       .  S
Zr279       O305   2.452       .  S
Zr279       O283   2.393       .  S
Zr279       O286   2.386       .  S
Zr280       O306   2.435       .  S
Zr280       O307   2.435       .  S
Zr280       O282   2.437       .  S
Zr280       O283   2.397       .  S
Zr280       O284   2.399       .  S
O281        H318   0.990       .  S
O282        H313   0.990       .  S
O282        H327   0.990       .  S
O284        H310   0.966       .  S
O285       Zr295   2.379       .  S
O286       Zr295   2.382       .  S
O286        H311   0.966       .  S
C287       C1418   1.479       .  S
C288       C1433   1.473       .  S
C289       C1466   1.481       .  S
O290        H326   0.990       .  S
O291        C293   1.287       .  A
O292        C293   1.283       .  A
C293       C1970   1.480       .  S
O294       Zr295   2.439       .  S
O294        H323   0.990       .  S
Zr295       O298   2.436       .  S
Zr295       O299   2.439       .  S
Zr295       O300   2.420       .  S
O296        C301   1.286       .  A
O297        H314   0.990       .  S
O297        H329   0.990       .  S
O298        H315   0.990       .  S
O299        H319   0.990       .  S
O299        H328   0.990       .  S
O300        C301   1.282       .  A
C301       C2441   1.479       .  S
O302        H321   0.990       .  S
O302        H325   0.990       .  S
O303        H317   0.990       .  S
O303        H324   0.990       .  S
O304        C308   1.283       .  A
O305        C308   1.288       .  A
O306        H316   0.989       .  S
O307        H320   0.990       .  S
C308       C1865   1.490       .  S
C331        N332   1.362       .  A
C331        N336   1.359       .  A
C331       C1745   1.482       .  S
N332        C333   1.363   1_554  A
C333        N334   1.358       .  A
C333       C1385   1.489       .  S
N334        C335   1.355   1_556  A
C335        N336   1.355       .  A
C335       C1370   1.478       .  S
Zr337       O338   2.441       .  S
Zr337       O339   2.421       .  S
Zr337       O340   2.423       .  S
Zr337       O343   2.423       .  S
Zr337       O345   2.377       .  S
Zr337       O346   2.378       .  S
Zr337       O347   2.404       .  S
Zr337       O348   2.395       .  S
O338        H394   0.991       .  S
O338        H402   0.990       .  S
O339        C359   1.281       .  A
O340        C361   1.282       .  A
O341       Zr351   2.438       .  S
O341        C360   1.285       .  A
O342       Zr350   2.449       .  S
O342        C361   1.286       .  A
O343        C360   1.283       .  A
O344       Zr352   2.423       .  S
O344        C359   1.281       .  A
O345       Zr350   2.399       .  S
O345       Zr352   2.382       .  S
O346       Zr351   2.403       .  S
O346       Zr352   2.379       .  S
O346        H381   0.966       .  S
O347       Zr350   2.405       .  S
O347       Zr367   2.382       .  S
O347        H384   0.965       .  S
O348       Zr351   2.392       .  S
O348       Zr367   2.391       .  S
Zr349       O374   2.443       .  S
Zr349       O368   2.421       .  S
Zr349       O376   2.413       .  S
Zr349       O364   2.420       .  S
Zr349       O355   2.395       .  S
Zr349       O356   2.396       .  S
Zr349       O357   2.372       .  S
Zr349       O358   2.378       .  S
Zr350       O369   2.436       .  S
Zr350       O362   2.435       .  S
Zr350       O363   2.453       .  S
Zr350       O356   2.399       .  S
Zr350       O357   2.388       .  S
Zr351       O353   2.435       .  S
Zr351       O375   2.438       .  S
Zr351       O377   2.448       .  S
Zr351       O355   2.395       .  S
Zr351       O358   2.386       .  S
Zr352       O378   2.437       .  S
Zr352       O379   2.436       .  S
Zr352       O354   2.436       .  S
Zr352       O355   2.393       .  S
Zr352       O356   2.399       .  S
O353        H390   0.990       .  S
O354        H385   0.990       .  S
O354        H399   0.990       .  S
O356        H382   0.966       .  S
O357       Zr367   2.375       .  S
O358       Zr367   2.375       .  S
O358        H383   0.966       .  S
C359       C2033   1.477       .  S
C360       C1394   1.477       .  S
C361       C2177   1.482       .  S
O362        H398   0.990       .  S
O363        C365   1.289       .  A
O364        C365   1.283       .  A
C365       C1289   1.481       .  S
O366       Zr367   2.438       .  S
O366        H395   0.990       .  S
Zr367       O370   2.437       .  S
Zr367       O371   2.439       .  S
Zr367       O372   2.411       .  S
O368        C373   1.283       .  A
O369        H386   0.990       .  S
O369        H401   0.990       .  S
O370        H387   0.990       .  S
O371        H391   0.990       .  S
O371        H400   0.990       .  S
O372        C373   1.280       .  A
C373       C1322   1.467       .  S
O374        H393   0.990       .  S
O374        H397   0.990       .  S
O375        H389   0.990       .  S
O375        H396   0.990       .  S
O376        C380   1.283       .  A
O377        C380   1.288       .  A
O378        H388   0.990       .  S
O379        H392   0.990       .  S
C380       C1337   1.482       .  S
Zr403       O404   2.439       .  S
Zr403       O405   2.408       .  S
Zr403       O406   2.424       .  S
Zr403       O409   2.422       .  S
Zr403       O411   2.379       .  S
Zr403       O412   2.379       .  S
Zr403       O413   2.399       .  S
Zr403       O414   2.394       .  S
O404        H460   0.990       .  S
O404        H468   0.990       .  S
O405        C425   1.280       .  A
O406        C427   1.283       .  A
O407       Zr417   2.443       .  S
O407        C426   1.286       .  A
O408       Zr416   2.444       .  S
O408        C427   1.286       .  A
O409        C426   1.283       .  A
O410       Zr418   2.426       .  S
O410        C425   1.282       .  A
O411       Zr416   2.391       .  S
O411       Zr418   2.375       .  S
O412       Zr417   2.393       .  S
O412       Zr418   2.372       .  S
O412        H447   0.966       .  S
O413       Zr416   2.402       .  S
O413       Zr433   2.392       .  S
O413        H450   0.966       .  S
O414       Zr417   2.393       .  S
O414       Zr433   2.393       .  S
Zr415       O440   2.445       .  S
Zr415       O434   2.424       .  S
Zr415       O442   2.419       .  S
Zr415       O430   2.414       .  S
Zr415       O421   2.394       .  S
Zr415       O422   2.399       .  S
Zr415       O423   2.376       .  S
Zr415       O424   2.377       .  S
Zr416       O435   2.437       .  S
Zr416       O428   2.434       .  S
Zr416       O429   2.450       .  S
Zr416       O422   2.397       .  S
Zr416       O423   2.390       .  S
Zr417       O419   2.434       .  S
Zr417       O441   2.436       .  S
Zr417       O443   2.448       .  S
Zr417       O421   2.393       .  S
Zr417       O424   2.388       .  S
Zr418       O444   2.435       .  S
Zr418       O445   2.435       .  S
Zr418       O420   2.435       .  S
Zr418       O421   2.395       .  S
Zr418       O422   2.396       .  S
O419        H456   0.990       .  S
O420        H451   0.990       .  S
O420        H465   0.990       .  S
O422        H448   0.966       .  S
O423       Zr433   2.378       .  S
O424       Zr433   2.379       .  S
O424        H449   0.966       .  S
C425       C2009   1.474       .  S
C426       C2105   1.473       .  S
C427       C2330   1.477       .  S
O428        H464   0.990       .  S
O429        C431   1.288       .  A
O430        C431   1.283       .  A
C431       C1241   1.488       .  S
O432       Zr433   2.439       .  S
O432        H461   0.990       .  S
Zr433       O436   2.436       .  S
Zr433       O437   2.439       .  S
Zr433       O438   2.425       .  S
O434        C439   1.283       .  A
O435        H452   0.990       .  S
O435        H467   0.990       .  S
O436        H453   0.990       .  S
O437        H457   0.990       .  S
O437        H466   0.990       .  S
O438        C439   1.283       .  A
C439       C1265   1.476       .  S
O440        H459   0.990       .  S
O440        H463   0.990       .  S
O441        H455   0.990       .  S
O441        H462   0.990       .  S
O442        C446   1.284       .  A
O443        C446   1.287       .  A
O444        H454   0.990       .  S
O445        H458   0.989       .  S
C446       C1217   1.487       .  S
Zr469       O470   2.439       .  S
Zr469       O471   2.430       .  S
Zr469       O472   2.428       .  S
Zr469       O475   2.426       .  S
Zr469       O477   2.376       .  S
Zr469       O478   2.382       .  S
Zr469       O479   2.406       .  S
Zr469       O480   2.400       .  S
O470        H526   0.990       .  S
O470        H534   0.990       .  S
O471        C491   1.283       .  A
O472        C493   1.284       .  A
O473       Zr483   2.445       .  S
O473        C492   1.287       .  A
O474       Zr482   2.441       .  S
O474        C493   1.286       .  A
O475        C492   1.284       .  A
O476       Zr484   2.432       .  S
O476        C491   1.284       .  A
O477       Zr482   2.392       .  S
O477       Zr484   2.375       .  S
O478       Zr483   2.398       .  S
O478       Zr484   2.376       .  S
O478        H513   0.966       .  S
O479       Zr482   2.401       .  S
O479       Zr499   2.393       .  S
O479        H516   0.966       .  S
O480       Zr483   2.393       .  S
O480       Zr499   2.393       .  S
Zr481       O506   2.442       .  S
Zr481       O500   2.436       .  S
Zr481       O508   2.422       .  S
Zr481       O496   2.420       .  S
Zr481       O487   2.398       .  S
Zr481       O488   2.402       .  S
Zr481       O489   2.374       .  S
Zr481       O490   2.380       .  S
Zr482       O501   2.436       .  S
Zr482       O494   2.436       .  S
Zr482       O495   2.445       .  S
Zr482       O488   2.395       .  S
Zr482       O489   2.386       .  S
Zr483       O485   2.435       .  S
Zr483       O507   2.435       .  S
Zr483       O509   2.459       .  S
Zr483       O487   2.393       .  S
Zr483       O490   2.392       .  S
Zr484       O510   2.436       .  S
Zr484       O511   2.435       .  S
Zr484       O486   2.436       .  S
Zr484       O487   2.398       .  S
Zr484       O488   2.400       .  S
O485        H522   0.990       .  S
O486        H517   0.990       .  S
O486        H531   0.990       .  S
O488        H514   0.966       .  S
O489       Zr499   2.370       .  S
O490       Zr499   2.379       .  S
O490        H515   0.966       .  S
C491       C2249   1.490       .  S
C492       C2162   1.479       .  S
C493       C2402   1.481       .  S
O494        H530   0.990       .  S
O495        C497   1.287       .  A
O496        C497   1.283       .  A
C497       C1178   1.483       .  S
O498       Zr499   2.438       .  S
O498        H527   0.990       .  S
Zr499       O502   2.436       .  S
Zr499       O503   2.439       .  S
Zr499       O504   2.421       .  S
O500        C505   1.285       .  A
O501        H518   0.990       .  S
O501        H533   0.990       .  S
O502        H519   0.990       .  S
O503        H523   0.990       .  S
O503        H532   0.990       .  S
O504        C505   1.281       .  A
C505       C1193   1.474       .  S
O506        H525   0.990       .  S
O506        H529   0.990       .  S
O507        H521   0.990       .  S
O507        H528   0.990       .  S
O508        C512   1.281       .  A
O509        C512   1.290       .  A
O510        H520   0.990       .  S
O511        H524   0.990       .  S
C512       C1145   1.506       .  S
Zr535       O536   2.441       .  S
Zr535       O537   2.431       .  S
Zr535       O538   2.421       .  S
Zr535       O541   2.414       .  S
Zr535       O543   2.376       .  S
Zr535       O544   2.377       .  S
Zr535       O545   2.403       .  S
Zr535       O546   2.399       .  S
O536        H592   0.991       .  S
O536        H600   0.990       .  S
O537        C557   1.283       .  A
O538        C559   1.282       .  A
O539       Zr549   2.451       .  S
O539        C558   1.287       .  A
O540       Zr548   2.448       .  S
O540        C559   1.286       .  A
O541        C558   1.281       .  A
O542       Zr550   2.415       .  S
O542        C557   1.281       .  A
O543       Zr548   2.397       .  S
O543       Zr550   2.378       .  S
O544       Zr549   2.393       .  S
O544       Zr550   2.381       .  S
O544        H579   0.966       .  S
O545       Zr548   2.400       .  S
O545       Zr565   2.398       .  S
O545        H582   0.966       .  S
O546       Zr549   2.388       .  S
O546       Zr565   2.399       .  S
Zr547       O572   2.442       .  S
Zr547       O566   2.424       .  S
Zr547       O574   2.430       .  S
Zr547       O562   2.438       .  S
Zr547       O553   2.398       .  S
Zr547       O554   2.403       .  S
Zr547       O555   2.378       .  S
Zr547       O556   2.385       .  S
Zr548       O567   2.436       .  S
Zr548       O560   2.433       .  S
Zr548       O561   2.440       .  S
Zr548       O554   2.407       .  S
Zr548       O555   2.395       .  S
Zr549       O551   2.435       .  S
Zr549       O573   2.438       .  S
Zr549       O575   2.430       .  S
Zr549       O553   2.402       .  S
Zr549       O556   2.396       .  S
Zr550       O576   2.435       .  S
Zr550       O577   2.436       .  S
Zr550       O552   2.437       .  S
Zr550       O553   2.390       .  S
Zr550       O554   2.391       .  S
O551        H588   0.990       .  S
O552        H583   0.990       .  S
O552        H597   0.990       .  S
O554        H580   0.966       .  S
O555       Zr565   2.375       .  S
O556       Zr565   2.380       .  S
O556        H581   0.966       .  S
C557       C2090   1.483       .  S
C558       C2225   1.482       .  S
C559       C2474   1.483       .  S
O560        H596   0.990       .  S
O561        C563   1.285       .  A
O562        C563   1.285       .  A
C563       C1106   1.495       .  S
O564       Zr565   2.439       .  S
O564        H593   0.990       .  S
Zr565       O568   2.437       .  S
Zr565       O569   2.438       .  S
Zr565       O570   2.427       .  S
O566        C571   1.282       .  A
O567        H584   0.990       .  S
O567        H599   0.990       .  S
O568        H585   0.990       .  S
O569        H589   0.990       .  S
O569        H598   0.989       .  S
O570        C571   1.282       .  A
C571       C1121   1.476       .  S
O572        H591   0.990       .  S
O572        H595   0.991       .  S
O573        H587   0.990       .  S
O573        H594   0.990       .  S
O574        C578   1.285       .  A
O575        C578   1.283       .  A
O576        H586   0.990       .  S
O577        H590   0.990       .  S
C578       C1073   1.474       .  S
C601        N602   1.354       .  A
C601        N606   1.359       .  A
C601       C1130   1.475       .  S
N602        C603   1.354       .  A
C603        N604   1.360       .  A
C603       C1049   1.479       .  S
N604        C605   1.363       .  A
C605        N606   1.362       .  A
C605       C1250   1.483       .  S
C607        N608   1.359       .  A
C607        N612   1.356       .  A
C607       C1313   1.467       .  S
N608        C609   1.360       .  A
C609        N610   1.357       .  A
C609       C1274   1.476       .  S
N610        C611   1.355       .  A
C611        N612   1.353       .  A
C611       C1025   1.474       .  S
C613        N614   1.359       .  A
C613        N618   1.359       .  A
C613       C1169   1.479       .  S
N614        C615   1.359       .  A
C615        N616   1.358       .  A
C615       C1346   1.472       .  S
N616        C617   1.356       .  A
C617        N618   1.357       .  A
C617       C1001   1.482       .  S
C619        N620   1.360       .  A
C619        N624   1.357       .  A
C619       C1202   1.474       .  S
N620        C621   1.360       .  A
C621        N622   1.357       .  A
C621       C1097   1.468       .  S
N622        C623   1.355       .  A
C623        N624   1.355       .  A
C623        C977   1.473       .  S
C625        N626   1.355       .  A
C625        N630   1.362       .  A
C625       C1538   1.481       .  S
N626        C627   1.354       .  A
C627        N628   1.355       .  A
C627        C953   1.473       .  S
N628        C629   1.358       .  A
C629        N630   1.362       .  A
C629       C1697   1.487       .  S
C631        N632   1.355       .  A
C631        N636   1.360       .  A
C631       C1514   1.471       .  S
N632        C633   1.355       .  A
C633        N634   1.356       .  A
C633        C929   1.479       .  S
N634        C635   1.359       .  A
C635        N636   1.361       .  A
C635       C1457   1.483       .  S
C637        N638   1.358       .  A
C637        N642   1.362       .  A
C637       C1442   1.482       .  S
N638        C639   1.357       .  A
C639        N640   1.357       .  A
C639        C905   1.479       .  S
N640        C641   1.359       .  A
C641        N642   1.362       .  A
C641       C1601   1.482       .  S
C643        N644   1.359       .  A
C643        N648   1.354       .  A
C643       C1730   1.476       .  S
N644        C645   1.361       .  A
C645        N646   1.365       .  A
C645       C1586   1.481       .  S
N646        C647   1.362       .  A
C647        N648   1.353       .  A
C647        C881   1.484       .  S
C649        N650   1.360       .  A
C649        N654   1.357       .  A
C649       C1409   1.480       .  S
N650        C651   1.360       .  A
C651        N652   1.359       .  A
C651       C1082   1.479       .  S
N652        C653   1.356       .  A
C653        N654   1.356       .  A
C653        C857   1.479       .  S
C655        N656   1.361       .  A
C655        N660   1.362       .  A
C655       C1481   1.484       .  S
N656        C657   1.359       .  A
C657        N658   1.357       .  A
C657        C833   1.488       .  S
N658        C659   1.358       .  A
C659        N660   1.360       .  A
C659       C1154   1.479       .  S
C661        N662   1.357       .  A
C661        N666   1.362       .  A
C661       C1553   1.476       .  S
N662        C663   1.356       .  A
C663        N664   1.356       .  A
C663        C809   1.476       .  S
N664        C665   1.360       .  A
C665        N666   1.363       .  A
C665       C1226   1.491       .  S
C667        N668   1.362       .  A
C667        N672   1.359       .  A
C667       C1682   1.492       .  S
N668        C669   1.362       .  A
C669        N670   1.360       .  A
C669       C1298   1.482       .  S
N670        C671   1.358       .  A
C671        N672   1.357       .  A
C671        C785   1.489       .  S
O673       Zr709   2.447   1_565  S
O673        C684   1.294       .  A
O674       Zr708   2.430   1_565  S
O674        C685   1.290       .  A
O675       Zr681   2.440   1_556  S
O675        C686   1.292       .  A
O676       Zr681   2.434       .  S
O676        C687   1.292       .  A
O677       Zr711   2.425   1_565  S
O677        C687   1.289       .  A
O678       Zr710   2.431       .  S
O678        C686   1.291   1_545  A
O679       Zr681   2.444   1_455  S
O679        C685   1.293       .  A
O680       Zr681   2.438       .  S
O680        C684   1.292       .  A
Zr681       O682   2.340   1_665  S
Zr681       O683   2.339   1_564  S
Zr681       O691   2.339   1_565  S
Zr681       O689   2.333   1_664  S
O682       Zr708   2.333       .  S
O682       Zr711   2.335   1_455  S
O683       Zr709   2.336   1_556  S
O683       Zr710   2.338       .  S
C684       C2498   1.486       .  S
C685       C2354   1.481       .  S
C686       C2138   1.475       .  S
C687       C1985   1.468       .  S
H688        O689   0.965       .  S
O689       Zr708   2.335   1_556  S
O689       Zr710   2.339   1_455  S
H690        O691   0.966       .  S
O691       Zr709   2.339       .  S
O691       Zr711   2.341       .  S
O692       Zr708   2.426       .  S
O692        C715   1.291       .  A
O693       Zr709   2.440       .  S
O693        C716   1.293       .  A
O694       Zr710   2.435   1_455  S
O694        C717   1.292       .  A
O695       Zr711   2.440   1_455  S
O695        C718   1.292       .  A
O696       Zr711   2.430       .  S
O696        C719   1.290       .  A
O697       Zr710   2.441       .  S
O697        C720   1.293       .  A
O698       Zr712   2.446   1_556  S
O698        C721   1.293       .  A
O699       Zr712   2.446       .  S
O699        C722   1.293       .  A
O700       Zr710   2.443       .  S
O700        C721   1.293       .  A
O701       Zr711   2.429       .  S
O701        C722   1.291       .  A
O702       Zr708   2.432   1_556  S
O702        C717   1.291       .  A
O703       Zr709   2.439   1_556  S
O703        C720   1.292       .  A
O704       Zr709   2.442       .  S
O704        C719   1.293       .  A
O705       Zr708   2.438       .  S
O705        C718   1.292       .  A
O706       Zr712   2.455   1_455  S
O706        C715   1.295       .  A
O707       Zr712   2.438       .  S
O707        C716   1.293       .  A
Zr708       O714   2.340   1_554  S
Zr708       O726   2.342       .  S
Zr709       O713   2.339       .  S
Zr709       O724   2.351   1_554  S
Zr710       O714   2.338   1_655  S
Zr710       O724   2.343       .  S
Zr711       O713   2.335       .  S
Zr711       O726   2.341   1_655  S
Zr712       O713   2.343       .  S
Zr712       O714   2.341   1_654  S
Zr712       O726   2.347   1_655  S
Zr712       O724   2.352   1_554  S
C715       C1361   1.482       .  S
C716       C2426   1.481       .  S
C717       C2057   1.480       .  S
C718       C1634   1.479       .  S
C719       C1922   1.475       .  S
C720       C2282   1.482       .  S
C721       C2210   1.477       .  S
C722       C1793   1.481       .  S
H723        O724   0.966       .  S
H725        O726   0.966       .  S
O727       Zr763   2.433       .  S
O727        C738   1.291       .  A
O728       Zr762   2.441       .  S
O728        C739   1.292       .  A
O729       Zr735   2.438       .  S
O729        C740   1.292       .  A
O730       Zr735   2.429       .  S
O730        C741   1.290       .  A
O731       Zr765   2.441       .  S
O731        C741   1.293       .  A
O732       Zr764   2.428       .  S
O732        C740   1.290       .  A
O733       Zr735   2.422       .  S
O733        C739   1.289       .  A
O734       Zr735   2.431       .  S
O734        C738   1.291       .  A
Zr735       O736   2.337       .  S
Zr735       O737   2.332       .  S
Zr735       O745   2.338       .  S
Zr735       O743   2.334       .  S
O736       Zr762   2.341       .  S
O736       Zr765   2.336       .  S
O737       Zr763   2.336       .  S
O737       Zr764   2.333       .  S
C738       C1058   1.473       .  S
C739       C1010   1.471       .  S
C740       C1034   1.476       .  S
C741        C986   1.479       .  S
H742        O743   0.965       .  S
O743       Zr762   2.346       .  S
O743       Zr764   2.337       .  S
H744        O745   0.966       .  S
O745       Zr763   2.342       .  S
O745       Zr765   2.336       .  S
O746       Zr762   2.437       .  S
O746        C769   1.292       .  A
O747       Zr763   2.436       .  S
O747        C770   1.292       .  A
O748       Zr764   2.430       .  S
O748        C771   1.291       .  A
O749       Zr765   2.429       .  S
O749        C772   1.290       .  A
O750       Zr765   2.445       .  S
O750        C773   1.294       .  A
O751       Zr764   2.433       .  S
O751        C774   1.291       .  A
O752       Zr766   2.451       .  S
O752        C775   1.294       .  A
O753       Zr766   2.440       .  S
O753        C776   1.293       .  A
O754       Zr764   2.430       .  S
O754        C775   1.291       .  A
O755       Zr765   2.427       .  S
O755        C776   1.290       .  A
O756       Zr762   2.453       .  S
O756        C771   1.295       .  A
O757       Zr763   2.437       .  S
O757        C774   1.292       .  A
O758       Zr763   2.430       .  S
O758        C773   1.290       .  A
O759       Zr762   2.461       .  S
O759        C772   1.296       .  A
O760       Zr766   2.431       .  S
O760        C769   1.291       .  A
O761       Zr766   2.443       .  S
O761        C770   1.293       .  A
Zr762       O768   2.347       .  S
Zr762       O780   2.344       .  S
Zr763       O767   2.336       .  S
Zr763       O778   2.340       .  S
Zr764       O768   2.337       .  S
Zr764       O778   2.339       .  S
Zr765       O767   2.339       .  S
Zr765       O780   2.347       .  S
Zr766       O767   2.338       .  S
Zr766       O768   2.340       .  S
Zr766       O780   2.349       .  S
Zr766       O778   2.338       .  S
C769        C962   1.464       .  S
C770        C914   1.485       .  S
C771        C794   1.483       .  S
C772        C842   1.487       .  S
C773        C866   1.477       .  S
C774        C818   1.472       .  S
C775        C890   1.481       .  S
C776        C938   1.469       .  S
H777        O778   0.966       .  S
H779        O780   0.966       .  S
C781        C782   1.402       .  A
C781        C786   1.401       .  A
C781        H791   1.084       .  S
C782        C787   1.480       .  S
C782        C783   1.410       .  A
C783        C784   1.400       .  A
C783        S788   1.806       .  S
C784        C785   1.409       .  A
C784        H789   1.084       .  S
C785        C786   1.418       .  A
C786        S790   1.802       .  S
C787        C792   1.408       .  A
C787        C796   1.402       .  A
S788        H804   1.405       .  S
S790        H801   1.407       .  S
C792        C793   1.402       .  A
C792        S797   1.807       .  S
C793        C794   1.407       .  A
C793        H798   1.083       .  S
C794        C795   1.417       .  A
C795        C796   1.401       .  A
C795        S799   1.803       .  S
C796        H800   1.084       .  S
S797        H802   1.407       .  S
S799        H803   1.405       .  S
C805        C806   1.401       .  A
C805        C810   1.397       .  A
C805        H815   1.084       .  S
C806        C811   1.475       .  S
C806        C807   1.412       .  A
C807        C808   1.400       .  A
C807        S812   1.806       .  S
C808        C809   1.405       .  A
C808        H813   1.084       .  S
C809        C810   1.413       .  A
C810        S814   1.801       .  S
C811        C816   1.407       .  A
C811        C820   1.402       .  A
S812        H828   1.403       .  S
S814        H825   1.407       .  S
C816        C817   1.401       .  A
C816        S821   1.806       .  S
C817        C818   1.405       .  A
C817        H822   1.083       .  S
C818        C819   1.414       .  A
C819        C820   1.399       .  A
C819        S823   1.806       .  S
C820        H824   1.084       .  S
S821        H826   1.407       .  S
S823        H827   1.404       .  S
C829        C830   1.401       .  A
C829        C834   1.400       .  A
C829        H839   1.084       .  S
C830        C835   1.484       .  S
C830        C831   1.413       .  A
C831        C832   1.403       .  A
C831        S836   1.805       .  S
C832        C833   1.407       .  A
C832        H837   1.084       .  S
C833        C834   1.418       .  A
C834        S838   1.803       .  S
C835        C840   1.410       .  A
C835        C844   1.400       .  A
S836        H852   1.404       .  S
S838        H849   1.408       .  S
C840        C841   1.407       .  A
C840        S845   1.805       .  S
C841        C842   1.406       .  A
C841        H846   1.081       .  S
C842        C843   1.418       .  A
C843        C844   1.399       .  A
C843        S847   1.804       .  S
C844        H848   1.084       .  S
S845        H850   1.407       .  S
S847        H851   1.407       .  S
C853        C854   1.402       .  A
C853        C858   1.400       .  A
C853        H863   1.084       .  S
C854        C859   1.477       .  S
C854        C855   1.412       .  A
C855        C856   1.397       .  A
C855        S860   1.808       .  S
C856        C857   1.404       .  A
C856        H861   1.084       .  S
C857        C858   1.416       .  A
C858        S862   1.803       .  S
C859        C864   1.409       .  A
C859        C868   1.401       .  A
S860        H876   1.404       .  S
S862        H873   1.407       .  S
C864        C865   1.402       .  A
C864        S869   1.807       .  S
C865        C866   1.404       .  A
C865        H870   1.083       .  S
C866        C867   1.416       .  A
C867        C868   1.399       .  A
C867        S871   1.805       .  S
C868        H872   1.084       .  S
S869        H874   1.407       .  S
S871        H875   1.407       .  S
C877        C878   1.402       .  A
C877        C882   1.401       .  A
C877        H887   1.084       .  S
C878        C883   1.479       .  S
C878        C879   1.410       .  A
C879        C880   1.399       .  A
C879        S884   1.805       .  S
C880        C881   1.408       .  A
C880        H885   1.084       .  S
C881        C882   1.414       .  A
C882        S886   1.798       .  S
C883        C888   1.409       .  A
C883        C892   1.399       .  A
S884        H900   1.405       .  S
S886        H897   1.407       .  S
C888        C889   1.405       .  A
C888        S893   1.805       .  S
C889        C890   1.406       .  A
C889        H894   1.083       .  S
C890        C891   1.417       .  A
C891        C892   1.398       .  A
C891        S895   1.804       .  S
C892        H896   1.084       .  S
S893        H898   1.407       .  S
S895        H899   1.405       .  S
C901        C902   1.403       .  A
C901        C906   1.400       .  A
C901        H911   1.084       .  S
C902        C907   1.482       .  S
C902        C903   1.412       .  A
C903        C904   1.400       .  A
C903        S908   1.804       .  S
C904        C905   1.404       .  A
C904        H909   1.084       .  S
C905        C906   1.415       .  A
C906        S910   1.804       .  S
C907        C912   1.409       .  A
C907        C916   1.401       .  A
S908        H924   1.406       .  S
S910        H921   1.407       .  S
C912        C913   1.403       .  A
C912        S917   1.807       .  S
C913        C914   1.407       .  A
C913        H918   1.083       .  S
C914        C915   1.417       .  A
C915        C916   1.401       .  A
C915        S919   1.803       .  S
C916        H920   1.084       .  S
S917        H922   1.407       .  S
S919        H923   1.408       .  S
C925        C926   1.400       .  A
C925        C930   1.398       .  A
C925        H935   1.084       .  S
C926        C931   1.473       .  S
C926        C927   1.411       .  A
C927        C928   1.397       .  A
C927        S932   1.807       .  S
C928        C929   1.406       .  A
C928        H933   1.084       .  S
C929        C930   1.416       .  A
C930        S934   1.803       .  S
C931        C936   1.408       .  A
C931        C940   1.401       .  A
S932        H948   1.404       .  S
S934        H945   1.407       .  S
C936        C937   1.401       .  A
C936        S941   1.807       .  S
C937        C938   1.404       .  A
C937        H942   1.083       .  S
C938        C939   1.412       .  A
C939        C940   1.397       .  A
C939        S943   1.805       .  S
C940        H944   1.084       .  S
S941        H946   1.407       .  S
S943        H947   1.407       .  S
C949        C950   1.402       .  A
C949        C954   1.398       .  A
C949        H959   1.084       .  S
C950        C955   1.474       .  S
C950        C951   1.411       .  A
C951        C952   1.395       .  A
C951        S956   1.806       .  S
C952        C953   1.404       .  A
C952        H957   1.083       .  S
C953        C954   1.414       .  A
C954        S958   1.803       .  S
C955        C960   1.409       .  A
C955        C964   1.402       .  A
S956        H972   1.405       .  S
S958        H969   1.407       .  S
C960        C961   1.399       .  A
C960        S965   1.807       .  S
C961        C962   1.402       .  A
C961        H966   1.083       .  S
C962        C963   1.411       .  A
C963        C964   1.397       .  A
C963        S967   1.803       .  S
C964        H968   1.084       .  S
S965        H970   1.407       .  S
S967        H971   1.406       .  S
C973        C974   1.402       .  A
C973        C978   1.398       .  A
C973        H983   1.084       .  S
C974        C979   1.475       .  S
C974        C975   1.413       .  A
C975        C976   1.400       .  A
C975        S980   1.808       .  S
C976        C977   1.402       .  A
C976        H981   1.084       .  S
C977        C978   1.413       .  A
C978        S982   1.804       .  S
C979        C984   1.407       .  A
C979        C988   1.401       .  A
S980        H996   1.402       .  S
S982        H993   1.407       .  S
C984        C985   1.401       .  A
C984        S989   1.806       .  S
C985        C986   1.405       .  A
C985        H990   1.083       .  S
C986        C987   1.417       .  A
C987        C988   1.400       .  A
C987        S991   1.805       .  S
C988        H992   1.084       .  S
S989        H994   1.407       .  S
S991        H995   1.407       .  S
C997        C998   1.401       .  A
C997       C1002   1.398       .  A
C997       H1007   1.084       .  S
C998       C1003   1.475       .  S
C998        C999   1.412       .  A
C999       C1000   1.399       .  A
C999       S1004   1.807       .  S
C1000      C1001   1.406       .  A
C1000      H1005   1.084       .  S
C1001      C1002   1.417       .  A
C1002      S1006   1.803       .  S
C1003      C1008   1.410       .  A
C1003      C1012   1.399       .  A
S1004      H1020   1.404       .  S
S1006      H1017   1.407       .  S
C1008      C1009   1.404       .  A
C1008      S1013   1.806       .  S
C1009      C1010   1.404       .  A
C1009      H1014   1.083       .  S
C1010      C1011   1.414       .  A
C1011      C1012   1.393       .  A
C1011      S1015   1.806       .  S
C1012      H1016   1.084       .  S
S1013      H1018   1.407       .  S
S1015      H1019   1.405       .  S
C1021      C1022   1.400       .  A
C1021      C1026   1.396       .  A
C1021      H1031   1.084       .  S
C1022      C1027   1.471       .  S
C1022      C1023   1.412       .  A
C1023      C1024   1.399       .  A
C1023      S1028   1.808       .  S
C1024      C1025   1.405       .  A
C1024      H1029   1.084       .  S
C1025      C1026   1.413       .  A
C1026      S1030   1.803       .  S
C1027      C1032   1.406       .  A
C1027      C1036   1.399       .  A
S1028      H1044   1.402       .  S
S1030      H1041   1.407       .  S
C1032      C1033   1.402       .  A
C1032      S1037   1.806       .  S
C1033      C1034   1.407       .  A
C1033      H1038   1.083       .  S
C1034      C1035   1.415       .  A
C1035      C1036   1.396       .  A
C1035      S1039   1.803       .  S
C1036      H1040   1.084       .  S
S1037      H1042   1.407       .  S
S1039      H1043   1.407       .  S
C1045      C1046   1.401       .  A
C1045      C1050   1.397       .  A
C1045      H1055   1.084       .  S
C1046      C1051   1.475       .  S
C1046      C1047   1.410       .  A
C1047      C1048   1.398       .  A
C1047      S1052   1.805       .  S
C1048      C1049   1.407       .  A
C1048      H1053   1.084       .  S
C1049      C1050   1.414       .  A
C1050      S1054   1.797       .  S
C1051      C1056   1.409       .  A
C1051      C1060   1.401       .  A
S1052      H1068   1.406       .  S
S1054      H1065   1.407       .  S
C1056      C1057   1.399       .  A
C1056      S1061   1.808       .  S
C1057      C1058   1.404       .  A
C1057      H1062   1.083       .  S
C1058      C1059   1.415       .  A
C1059      C1060   1.398       .  A
C1059      S1063   1.805       .  S
C1060      H1064   1.084       .  S
S1061      H1066   1.407       .  S
S1063      H1067   1.407       .  S
C1069      C1070   1.402       .  A
C1069      C1074   1.396       .  A
C1069      H1079   1.084       .  S
C1070      C1075   1.480       .  S
C1070      C1071   1.413       .  A
C1071      C1072   1.402       .  A
C1071      S1076   1.803       .  S
C1072      C1073   1.404       .  A
C1072      H1077   1.084       .  S
C1073      C1074   1.412       .  A
C1074      S1078   1.804       .  S
C1075      C1080   1.409       .  A
C1075      C1084   1.402       .  A
S1076      H1092   1.407       .  S
S1078      H1089   1.407       .  S
C1080      C1081   1.403       .  A
C1080      S1085   1.806       .  S
C1081      C1082   1.405       .  A
C1081      H1086   1.083       .  S
C1082      C1083   1.415       .  A
C1083      C1084   1.397       .  A
C1083      S1087   1.803       .  S
C1084      H1088   1.084       .  S
S1085      H1090   1.407       .  S
S1087      H1091   1.407       .  S
C1093      C1094   1.403       .  A
C1093      C1098   1.399       .  A
C1093      H1103   1.084       .  S
C1094      C1099   1.483       .  S
C1094      C1095   1.415       .  A
C1095      C1096   1.400       .  A
C1095      S1100   1.804       .  S
C1096      C1097   1.401       .  A
C1096      H1101   1.084       .  S
C1097      C1098   1.410       .  A
C1098      S1102   1.804       .  S
C1099      C1104   1.409       .  A
C1099      C1108   1.400       .  A
S1100      H1116   1.406       .  S
S1102      H1113   1.407       .  S
C1104      C1105   1.403       .  A
C1104      S1109   1.808       .  S
C1105      C1106   1.410       .  A
C1105      H1110   1.082       .  S
C1106      C1107   1.420       .  A
C1107      C1108   1.401       .  A
C1107      S1111   1.799       .  S
C1108      H1112   1.084       .  S
S1109      H1114   1.407       .  S
S1111      H1115   1.407       .  S
C1117      C1118   1.400       .  A
C1117      C1122   1.399       .  A
C1117      H1127   1.084       .  S
C1118      C1123   1.475       .  S
C1118      C1119   1.412       .  A
C1119      C1120   1.398       .  A
C1119      S1124   1.805       .  S
C1120      C1121   1.405       .  A
C1120      H1125   1.084       .  S
C1121      C1122   1.414       .  A
C1122      S1126   1.802       .  S
C1123      C1128   1.408       .  A
C1123      C1132   1.399       .  A
S1124      H1140   1.405       .  S
S1126      H1137   1.407       .  S
C1128      C1129   1.403       .  A
C1128      S1133   1.806       .  S
C1129      C1130   1.403       .  A
C1129      H1134   1.083       .  S
C1130      C1131   1.414       .  A
C1131      C1132   1.401       .  A
C1131      S1135   1.808       .  S
C1132      H1136   1.083       .  S
S1133      H1138   1.407       .  S
S1135      H1139   1.407       .  S
C1141      C1142   1.397       .  A
C1141      C1146   1.398       .  A
C1141      H1151   1.085       .  S
C1142      C1147   1.487       .  S
C1142      C1143   1.412       .  A
C1143      C1144   1.407       .  A
C1143      S1148   1.805       .  S
C1144      C1145   1.413       .  A
C1144      H1149   1.083       .  S
C1145      C1146   1.427       .  A
C1146      S1150   1.802       .  S
C1147      C1152   1.412       .  A
C1147      C1156   1.403       .  A
S1148      H1164   1.405       .  S
S1150      H1161   1.404       .  S
C1152      C1153   1.407       .  A
C1152      S1157   1.805       .  S
C1153      C1154   1.405       .  A
C1153      H1158   1.083       .  S
C1154      C1155   1.413       .  A
C1155      C1156   1.399       .  A
C1155      S1159   1.804       .  S
C1156      H1160   1.084       .  S
S1157      H1162   1.407       .  S
S1159      H1163   1.407       .  S
C1165      C1166   1.401       .  A
C1165      C1170   1.396       .  A
C1165      H1175   1.084       .  S
C1166      C1171   1.480       .  S
C1166      C1167   1.413       .  A
C1167      C1168   1.404       .  A
C1167      S1172   1.805       .  S
C1168      C1169   1.406       .  A
C1168      H1173   1.084       .  S
C1169      C1170   1.414       .  A
C1170      S1174   1.804       .  S
C1171      C1176   1.409       .  A
C1171      C1180   1.400       .  A
S1172      H1188   1.404       .  S
S1174      H1185   1.407       .  S
C1176      C1177   1.406       .  A
C1176      S1181   1.805       .  S
C1177      C1178   1.407       .  A
C1177      H1182   1.083       .  S
C1178      C1179   1.416       .  A
C1179      C1180   1.397       .  A
C1179      S1183   1.804       .  S
C1180      H1184   1.084       .  S
S1181      H1186   1.407       .  S
S1183      H1187   1.407       .  S
C1189      C1190   1.402       .  A
C1189      C1194   1.397       .  A
C1189      H1199   1.084       .  S
C1190      C1195   1.476       .  S
C1190      C1191   1.412       .  A
C1191      C1192   1.400       .  A
C1191      S1196   1.806       .  S
C1192      C1193   1.405       .  A
C1192      H1197   1.084       .  S
C1193      C1194   1.411       .  A
C1194      S1198   1.802       .  S
C1195      C1200   1.409       .  A
C1195      C1204   1.400       .  A
S1196      H1212   1.404       .  S
S1198      H1209   1.406       .  S
C1200      C1201   1.403       .  A
C1200      S1205   1.806       .  S
C1201      C1202   1.403       .  A
C1201      H1206   1.083       .  S
C1202      C1203   1.414       .  A
C1203      C1204   1.397       .  A
C1203      S1207   1.804       .  S
C1204      H1208   1.084       .  S
S1205      H1210   1.407       .  S
S1207      H1211   1.407       .  S
C1213      C1214   1.404       .  A
C1213      C1218   1.406       .  A
C1213      H1223   1.084       .  S
C1214      C1219   1.481       .  S
C1214      C1215   1.410       .  A
C1215      C1216   1.395       .  A
C1215      S1220   1.806       .  S
C1216      C1217   1.406       .  A
C1216      H1221   1.083       .  S
C1217      C1218   1.417       .  A
C1218      S1222   1.801       .  S
C1219      C1224   1.407       .  A
C1219      C1228   1.401       .  A
S1220      H1236   1.404       .  S
S1222      H1233   1.407       .  S
C1224      C1225   1.401       .  A
C1224      S1229   1.808       .  S
C1225      C1226   1.409       .  A
C1225      H1230   1.082       .  S
C1226      C1227   1.419       .  A
C1227      C1228   1.404       .  A
C1227      S1231   1.801       .  S
C1228      H1232   1.084       .  S
S1229      H1234   1.406       .  S
S1231      H1235   1.407       .  S
C1237      C1238   1.404       .  A
C1237      C1242   1.406       .  A
C1237      H1247   1.084       .  S
C1238      C1243   1.479       .  S
C1238      C1239   1.409       .  A
C1239      C1240   1.392       .  A
C1239      S1244   1.807       .  S
C1240      C1241   1.407       .  A
C1240      H1245   1.083       .  S
C1241      C1242   1.418       .  A
C1242      S1246   1.801       .  S
C1243      C1248   1.409       .  A
C1243      C1252   1.400       .  A
S1244      H1260   1.405       .  S
S1246      H1257   1.407       .  S
C1248      C1249   1.402       .  A
C1248      S1253   1.806       .  S
C1249      C1250   1.405       .  A
C1249      H1254   1.083       .  S
C1250      C1251   1.414       .  A
C1251      C1252   1.403       .  A
C1251      S1255   1.802       .  S
C1252      H1256   1.083       .  S
S1253      H1258   1.407       .  S
S1255      H1259   1.407       .  S
C1261      C1262   1.401       .  A
C1261      C1266   1.397       .  A
C1261      H1271   1.084       .  S
C1262      C1267   1.473       .  S
C1262      C1263   1.411       .  A
C1263      C1264   1.399       .  A
C1263      S1268   1.805       .  S
C1264      C1265   1.405       .  A
C1264      H1269   1.084       .  S
C1265      C1266   1.414       .  A
C1266      S1270   1.804       .  S
C1267      C1272   1.407       .  A
C1267      C1276   1.401       .  A
S1268      H1284   1.404       .  S
S1270      H1281   1.407       .  S
C1272      C1273   1.398       .  A
C1272      S1277   1.807       .  S
C1273      C1274   1.405       .  A
C1273      H1278   1.082       .  S
C1274      C1275   1.415       .  A
C1275      C1276   1.400       .  A
C1275      S1279   1.802       .  S
C1276      H1280   1.084       .  S
S1277      H1282   1.407       .  S
S1279      H1283   1.407       .  S
C1285      C1286   1.403       .  A
C1285      C1290   1.402       .  A
C1285      H1295   1.084       .  S
C1286      C1291   1.484       .  S
C1286      C1287   1.413       .  A
C1287      C1288   1.402       .  A
C1287      S1292   1.803       .  S
C1288      C1289   1.404       .  A
C1288      H1293   1.084       .  S
C1289      C1290   1.416       .  A
C1290      S1294   1.806       .  S
C1291      C1296   1.410       .  A
C1291      C1300   1.401       .  A
S1292      H1308   1.405       .  S
S1294      H1305   1.406       .  S
C1296      C1297   1.408       .  A
C1296      S1301   1.805       .  S
C1297      C1298   1.406       .  A
C1297      H1302   1.083       .  S
C1298      C1299   1.414       .  A
C1299      C1300   1.400       .  A
C1299      S1303   1.803       .  S
C1300      H1304   1.084       .  S
S1301      H1306   1.407       .  S
S1303      H1307   1.407       .  S
C1309      C1310   1.400       .  A
C1309      C1314   1.394       .  A
C1309      H1319   1.084       .  S
C1310      C1315   1.473       .  S
C1310      C1311   1.412       .  A
C1311      C1312   1.399       .  A
C1311      S1316   1.803       .  S
C1312      C1313   1.402       .  A
C1312      H1317   1.084       .  S
C1313      C1314   1.412       .  A
C1314      S1318   1.804       .  S
C1315      C1320   1.407       .  A
C1315      C1324   1.402       .  A
S1316      H1332   1.406       .  S
S1318      H1329   1.407       .  S
C1320      C1321   1.400       .  A
C1320      S1325   1.806       .  S
C1321      C1322   1.404       .  A
C1321      H1326   1.083       .  S
C1322      C1323   1.412       .  A
C1323      C1324   1.395       .  A
C1323      S1327   1.805       .  S
C1324      H1328   1.084       .  S
S1325      H1330   1.407       .  S
S1327      H1331   1.407       .  S
C1333      C1334   1.404       .  A
C1333      C1338   1.405       .  A
C1333      H1343   1.084       .  S
C1334      C1339   1.477       .  S
C1334      C1335   1.409       .  A
C1335      C1336   1.392       .  A
C1335      S1340   1.807       .  S
C1336      C1337   1.405       .  A
C1336      H1341   1.083       .  S
C1337      C1338   1.415       .  A
C1338      S1342   1.801       .  S
C1339      C1344   1.408       .  A
C1339      C1348   1.402       .  A
S1340      H1356   1.404       .  S
S1342      H1353   1.407       .  S
C1344      C1345   1.402       .  A
C1344      S1349   1.806       .  S
C1345      C1346   1.403       .  A
C1345      H1350   1.083       .  S
C1346      C1347   1.413       .  A
C1347      C1348   1.399       .  A
C1347      S1351   1.803       .  S
C1348      H1352   1.084       .  S
S1349      H1354   1.407       .  S
S1351      H1355   1.407       .  S
C1357      C1358   1.402       .  A
C1357      C1362   1.402       .  A
C1357      H1367   1.084       .  S
C1358      C1363   1.477       .  S
C1358      C1359   1.411   1_554  A
C1359      C1360   1.398       .  A
C1359      S1364   1.807       .  S
C1360      C1361   1.406   1_556  A
C1360      H1365   1.084       .  S
C1361      C1362   1.415       .  A
C1362      S1366   1.804       .  S
C1363      C1368   1.408   1_554  A
C1363      C1372   1.401       .  A
S1364      H1380   1.403       .  S
S1366      H1377   1.408       .  S
C1368      C1369   1.402       .  A
C1368      S1373   1.806       .  S
C1369      C1370   1.405   1_556  A
C1369      H1374   1.082       .  S
C1370      C1371   1.414       .  A
C1371      C1372   1.399       .  A
C1371      S1375   1.803       .  S
C1372      H1376   1.084       .  S
S1373      H1378   1.407       .  S
S1375      H1379   1.407       .  S
C1381      C1382   1.400       .  A
C1381      C1386   1.396       .  A
C1381      H1391   1.084       .  S
C1382      C1387   1.483       .  S
C1382      C1383   1.411       .  A
C1383      C1384   1.404       .  A
C1383      S1388   1.802       .  S
C1384      C1385   1.408       .  A
C1384      H1389   1.083       .  S
C1385      C1386   1.419       .  A
C1386      S1390   1.803       .  S
C1387      C1392   1.410       .  A
C1387      C1396   1.404       .  A
S1388      H1404   1.406       .  S
S1390      H1401   1.408       .  S
C1392      C1393   1.400       .  A
C1392      S1397   1.807       .  S
C1393      C1394   1.403       .  A
C1393      H1398   1.083       .  S
C1394      C1395   1.415       .  A
C1395      C1396   1.403       .  A
C1395      S1399   1.803       .  S
C1396      H1400   1.084       .  S
S1397      H1402   1.407       .  S
S1399      H1403   1.406       .  S
C1405      C1406   1.401       .  A
C1405      C1410   1.397       .  A
C1405      H1415   1.084       .  S
C1406      C1411   1.479       .  S
C1406      C1407   1.411       .  A
C1407      C1408   1.401       .  A
C1407      S1412   1.804       .  S
C1408      C1409   1.406       .  A
C1408      H1413   1.084       .  S
C1409      C1410   1.416       .  A
C1410      S1414   1.803       .  S
C1411      C1416   1.409       .  A
C1411      C1420   1.400       .  A
S1412      H1428   1.406       .  S
S1414      H1425   1.407       .  S
C1416      C1417   1.403       .  A
C1416      S1421   1.806       .  S
C1417      C1418   1.406       .  A
C1417      H1422   1.083       .  S
C1418      C1419   1.416       .  A
C1419      C1420   1.398       .  A
C1419      S1423   1.803       .  S
C1420      H1424   1.084       .  S
S1421      H1426   1.406       .  S
S1423      H1427   1.405       .  S
C1429      C1430   1.402       .  A
C1429      C1434   1.399       .  A
C1429      H1439   1.084       .  S
C1430      C1435   1.481       .  S
C1430      C1431   1.413       .  A
C1431      C1432   1.402       .  A
C1431      S1436   1.803       .  S
C1432      C1433   1.403       .  A
C1432      H1437   1.084       .  S
C1433      C1434   1.413       .  A
C1434      S1438   1.806       .  S
C1435      C1440   1.409       .  A
C1435      C1444   1.402       .  A
S1436      H1452   1.404       .  S
S1438      H1449   1.405       .  S
C1440      C1441   1.403       .  A
C1440      S1445   1.807       .  S
C1441      C1442   1.405       .  A
C1441      H1446   1.083       .  S
C1442      C1443   1.415       .  A
C1443      C1444   1.402       .  A
C1443      S1447   1.802       .  S
C1444      H1448   1.084       .  S
S1445      H1450   1.407       .  S
S1447      H1451   1.407       .  S
C1453      C1454   1.403       .  A
C1453      C1458   1.404       .  A
C1453      H1463   1.084       .  S
C1454      C1459   1.484       .  S
C1454      C1455   1.413       .  A
C1455      C1456   1.397       .  A
C1455      S1460   1.806       .  S
C1456      C1457   1.404       .  A
C1456      H1461   1.084       .  S
C1457      C1458   1.417       .  A
C1458      S1462   1.802       .  S
C1459      C1464   1.410       .  A
C1459      C1468   1.402       .  A
S1460      H1476   1.406       .  S
S1462      H1473   1.407       .  S
C1464      C1465   1.403       .  A
C1464      S1469   1.807       .  S
C1465      C1466   1.405       .  A
C1465      H1470   1.083       .  S
C1466      C1467   1.413       .  A
C1467      C1468   1.405       .  A
C1467      S1471   1.804       .  S
C1468      H1472   1.083       .  S
S1469      H1474   1.406       .  S
S1471      H1475   1.407       .  S
C1477      C1478   1.402       .  A
C1477      C1482   1.400       .  A
C1477      H1487   1.084       .  S
C1478      C1483   1.481       .  S
C1478      C1479   1.413       .  A
C1479      C1480   1.401       .  A
C1479      S1484   1.806       .  S
C1480      C1481   1.406       .  A
C1480      H1485   1.084       .  S
C1481      C1482   1.416       .  A
C1482      S1486   1.802       .  S
C1483      C1488   1.410       .  A
C1483      C1492   1.399       .  A
S1484      H1500   1.404       .  S
S1486      H1497   1.407       .  S
C1488      C1489   1.408       .  A
C1488      S1493   1.804       .  S
C1489      C1490   1.406       .  A
C1489      H1494   1.083       .  S
C1490      C1491   1.415       .  A
C1491      C1492   1.395       .  A
C1491      S1495   1.803       .  S
C1492      H1496   1.084       .  S
S1493      H1498   1.407       .  S
S1495      H1499   1.406       .  S
C1501      C1502   1.403       .  A
C1501      C1506   1.400       .  A
C1501      H1511   1.084       .  S
C1502      C1507   1.477       .  S
C1502      C1503   1.410       .  A
C1503      C1504   1.398       .  A
C1503      S1508   1.805       .  S
C1504      C1505   1.405       .  A
C1504      H1509   1.084       .  S
C1505      C1506   1.415       .  A
C1506      S1510   1.805       .  S
C1507      C1512   1.410       .  A
C1507      C1516   1.401       .  A
S1508      H1524   1.405       .  S
S1510      H1521   1.407       .  S
C1512      C1513   1.404       .  A
C1512      S1517   1.806       .  S
C1513      C1514   1.402       .  A
C1513      H1518   1.083       .  S
C1514      C1515   1.413       .  A
C1515      C1516   1.397       .  A
C1515      S1519   1.804       .  S
C1516      H1520   1.084       .  S
S1517      H1522   1.407       .  S
S1519      H1523   1.407       .  S
C1525      C1526   1.400       .  A
C1525      C1530   1.396       .  A
C1525      H1535   1.084       .  S
C1526      C1531   1.479       .  S
C1526      C1527   1.413       .  A
C1527      C1528   1.403       .  A
C1527      S1532   1.804       .  S
C1528      C1529   1.404       .  A
C1528      H1533   1.084       .  S
C1529      C1530   1.415       .  A
C1530      S1534   1.804       .  S
C1531      C1536   1.409       .  A
C1531      C1540   1.399       .  A
S1532      H1548   1.405       .  S
S1534      H1545   1.406       .  S
C1536      C1537   1.404       .  A
C1536      S1541   1.806       .  S
C1537      C1538   1.405       .  A
C1537      H1542   1.082       .  S
C1538      C1539   1.418       .  A
C1539      C1540   1.397       .  A
C1539      S1543   1.804       .  S
C1540      H1544   1.084       .  S
S1541      H1546   1.407       .  S
S1543      H1547   1.407       .  S
C1549      C1550   1.402       .  A
C1549      C1554   1.403       .  A
C1549      H1559   1.083       .  S
C1550      C1555   1.480       .  S
C1550      C1551   1.413       .  A
C1551      C1552   1.401       .  A
C1551      S1556   1.805       .  S
C1552      C1553   1.403       .  A
C1552      H1557   1.084       .  S
C1553      C1554   1.411       .  A
C1554      S1558   1.805       .  S
C1555      C1560   1.409       .  A
C1555      C1564   1.400       .  A
S1556      H1572   1.405       .  S
S1558      H1569   1.407       .  S
C1560      C1561   1.404       .  A
C1560      S1565   1.806       .  S
C1561      C1562   1.405       .  A
C1561      H1566   1.079       .  S
C1562      C1563   1.417       .  A
C1563      C1564   1.399       .  A
C1563      S1567   1.802       .  S
C1564      H1568   1.084       .  S
S1565      H1570   1.407       .  S
S1567      H1571   1.407       .  S
C1573      C1574   1.404       .  A
C1573      C1578   1.406       .  A
C1573      H1583   1.084       .  S
C1574      C1579   1.483       .  S
C1574      C1575   1.410       .  A
C1575      C1576   1.397       .  A
C1575      S1580   1.804       .  S
C1576      C1577   1.407       .  A
C1576      H1581   1.084       .  S
C1577      C1578   1.416       .  A
C1578      S1582   1.801       .  S
C1579      C1584   1.408       .  A
C1579      C1588   1.402       .  A
S1580      H1596   1.405       .  S
S1582      H1593   1.407       .  S
C1584      C1585   1.407       .  A
C1584      S1589   1.804       .  S
C1585      C1586   1.406       .  A
C1585      H1590   1.083       .  S
C1586      C1587   1.413       .  A
C1587      C1588   1.400       .  A
C1587      S1591   1.801       .  S
C1588      H1592   1.084       .  S
S1589      H1594   1.407       .  S
S1591      H1595   1.407       .  S
C1597      C1598   1.402       .  A
C1597      C1602   1.399       .  A
C1597      H1607   1.084       .  S
C1598      C1603   1.485       .  S
C1598      C1599   1.414       .  A
C1599      C1600   1.403       .  A
C1599      S1604   1.804       .  S
C1600      C1601   1.405       .  A
C1600      H1605   1.084       .  S
C1601      C1602   1.415       .  A
C1602      S1606   1.804       .  S
C1603      C1608   1.411       .  A
C1603      C1612   1.402       .  A
S1604      H1620   1.405       .  S
S1606      H1617   1.407       .  S
C1608      C1609   1.407       .  A
C1608      S1613   1.805       .  S
C1609      C1610   1.405       .  A
C1609      H1614   1.083       .  S
C1610      C1611   1.413       .  A
C1611      C1612   1.399       .  A
C1611      S1615   1.801       .  S
C1612      H1616   1.084       .  S
S1613      H1618   1.407       .  S
S1615      H1619   1.407       .  S
C1621      C1622   1.401       .  A
C1621      C1626   1.401       .  A
C1621      H1631   1.084   1_545  S
C1622      C1627   1.480       .  S
C1622      C1623   1.410       .  A
C1623      C1624   1.398       .  A
C1623      S1628   1.804       .  S
C1624      C1625   1.407       .  A
C1624      H1629   1.084       .  S
C1625      C1626   1.417       .  A
C1626      S1630   1.802   1_545  S
C1627      C1632   1.409       .  A
C1627      C1636   1.402       .  A
S1628      H1644   1.405       .  S
S1630      H1641   1.408   1_565  S
C1632      C1633   1.402       .  A
C1632      S1637   1.807       .  S
C1633      C1634   1.405       .  A
C1633      H1638   1.083       .  S
C1634      C1635   1.416       .  A
C1635      C1636   1.401       .  A
C1635      S1639   1.804   1_545  S
C1636      H1640   1.084       .  S
S1637      H1642   1.407       .  S
S1639      H1643   1.406       .  S
C1645      C1646   1.402       .  A
C1645      C1650   1.403       .  A
C1645      H1655   1.084       .  S
C1646      C1651   1.483       .  S
C1646      C1647   1.413       .  A
C1647      C1648   1.398       .  A
C1647      S1652   1.806       .  S
C1648      C1649   1.405       .  A
C1648      H1653   1.084       .  S
C1649      C1650   1.417       .  A
C1650      S1654   1.801   1_565  S
C1651      C1656   1.410       .  A
C1651      C1660   1.402       .  A
S1652      H1668   1.406       .  S
S1654      H1665   1.407       .  S
C1656      C1657   1.401       .  A
C1656      S1661   1.808       .  S
C1657      C1658   1.406       .  A
C1657      H1662   1.083       .  S
C1658      C1659   1.415       .  A
C1659      C1660   1.401       .  A
C1659      S1663   1.798       .  S
C1660      H1664   1.084       .  S
S1661      H1666   1.407       .  S
S1663      H1667   1.407       .  S
C1669      C1670   1.403       .  A
C1669      C1674   1.399       .  A
C1669      H1679   1.084       .  S
C1670      C1675   1.484       .  S
C1670      C1671   1.414       .  A
C1671      C1672   1.404       .  A
C1671      S1676   1.804       .  S
C1672      C1673   1.404       .  A
C1672      H1677   1.084       .  S
C1673      C1674   1.414       .  A
C1674      S1678   1.805       .  S
C1675      C1680   1.408       .  A
C1675      C1684   1.402       .  A
S1676      H1692   1.405       .  S
S1678      H1689   1.407       .  S
C1680      C1681   1.401       .  A
C1680      S1685   1.808       .  S
C1681      C1682   1.409       .  A
C1681      H1686   1.082       .  S
C1682      C1683   1.419       .  A
C1683      C1684   1.405       .  A
C1683      S1687   1.801       .  S
C1684      H1688   1.084       .  S
S1685      H1690   1.407       .  S
S1687      H1691   1.407       .  S
C1693      C1694   1.403       .  A
C1693      C1698   1.401       .  A
C1693      H1703   1.084       .  S
C1694      C1699   1.482       .  S
C1694      C1695   1.412       .  A
C1695      C1696   1.399       .  A
C1695      S1700   1.806       .  S
C1696      C1697   1.408       .  A
C1696      H1701   1.084       .  S
C1697      C1698   1.417       .  A
C1698      S1702   1.801       .  S
C1699      C1704   1.412       .  A
C1699      C1708   1.400       .  A
S1700      H1716   1.405       .  S
S1702      H1713   1.407       .  S
C1704      C1705   1.408       .  A
C1704      S1709   1.805       .  S
C1705      C1706   1.403       .  A
C1705      H1710   1.083       .  S
C1706      C1707   1.411       .  A
C1707      C1708   1.399       .  A
C1707      S1711   1.808       .  S
C1708      H1712   1.083       .  S
S1709      H1714   1.407       .  S
S1711      H1715   1.407       .  S
C1717      C1718   1.401       .  A
C1717      C1722   1.396       .  A
C1717      H1727   1.084       .  S
C1718      C1723   1.473       .  S
C1718      C1719   1.410       .  A
C1719      C1720   1.398       .  A
C1719      S1724   1.805       .  S
C1720      C1721   1.405       .  A
C1720      H1725   1.084       .  S
C1721      C1722   1.415       .  A
C1722      S1726   1.806       .  S
C1723      C1728   1.406       .  A
C1723      C1732   1.402       .  A
S1724      H1740   1.405       .  S
S1726      H1737   1.408       .  S
C1728      C1729   1.398       .  A
C1728      S1733   1.808       .  S
C1729      C1730   1.406       .  A
C1729      H1734   1.083       .  S
C1730      C1731   1.415       .  A
C1731      C1732   1.400       .  A
C1731      S1735   1.802       .  S
C1732      H1736   1.084       .  S
S1733      H1738   1.407       .  S
S1735      H1739   1.407       .  S
C1741      C1742   1.403       .  A
C1741      C1746   1.403       .  A
C1741      H1751   1.084       .  S
C1742      C1747   1.480       .  S
C1742      C1743   1.413       .  A
C1743      C1744   1.396       .  A
C1743      S1748   1.806       .  S
C1744      C1745   1.404       .  A
C1744      H1749   1.084       .  S
C1745      C1746   1.414       .  A
C1746      S1750   1.797       .  S
C1747      C1752   1.408       .  A
C1747      C1756   1.403       .  A
S1748      H1764   1.405       .  S
S1750      H1761   1.407       .  S
C1752      C1753   1.401       .  A
C1752      S1757   1.807       .  S
C1753      C1754   1.405       .  A
C1753      H1758   1.083       .  S
C1754      C1755   1.416       .  A
C1755      C1756   1.403       .  A
C1755      S1759   1.803       .  S
C1756      H1760   1.084       .  S
S1757      H1762   1.407       .  S
S1759      H1763   1.405       .  S
C1765      C1766   1.401       .  A
C1765      C1770   1.399       .  A
C1765      H1775   1.084       .  S
C1766      C1771   1.474       .  S
C1766      C1767   1.412       .  A
C1767      C1768   1.396       .  A
C1767      S1772   1.804       .  S
C1768      C1769   1.402       .  A
C1768      H1773   1.084       .  S
C1769      C1770   1.414       .  A
C1770      S1774   1.803       .  S
C1771      C1776   1.405       .  A
C1771      C1780   1.402       .  A
S1772      H1788   1.405       .  S
S1774      H1785   1.407       .  S
C1776      C1777   1.396       .  A
C1776      S1781   1.809       .  S
C1777      C1778   1.408       .  A
C1777      H1782   1.082       .  S
C1778      C1779   1.417       .  A
C1779      C1780   1.404       .  A
C1779      S1783   1.801       .  S
C1780      H1784   1.084       .  S
S1781      H1786   1.406       .  S
S1783      H1787   1.407       .  S
C1789      C1790   1.403       .  A
C1789      C1794   1.403       .  A
C1789      H1799   1.084       .  S
C1790      C1795   1.478       .  S
C1790      C1791   1.411       .  A
C1791      C1792   1.396       .  A
C1791      S1796   1.807   1_655  S
C1792      C1793   1.404       .  A
C1792      H1797   1.084   1_655  S
C1793      C1794   1.416       .  A
C1794      S1798   1.803       .  S
C1795      C1800   1.407       .  A
C1795      C1804   1.400       .  A
S1796      H1812   1.403   1_455  S
S1798      H1809   1.407       .  S
C1800      C1801   1.402       .  A
C1800      S1805   1.805   1_655  S
C1801      C1802   1.407       .  A
C1801      H1806   1.083   1_655  S
C1802      C1803   1.419       .  A
C1803      C1804   1.400       .  A
C1803      S1807   1.803       .  S
C1804      H1808   1.084       .  S
S1805      H1810   1.407       .  S
S1807      H1811   1.407       .  S
C1813      C1814   1.402       .  A
C1813      C1818   1.404       .  A
C1813      H1823   1.084       .  S
C1814      C1819   1.477       .  S
C1814      C1815   1.409       .  A
C1815      C1816   1.393       .  A
C1815      S1820   1.805       .  S
C1816      C1817   1.406       .  A
C1816      H1821   1.084       .  S
C1817      C1818   1.417       .  A
C1818      S1822   1.801       .  S
C1819      C1824   1.410       .  A
C1819      C1828   1.400       .  A
S1820      H1836   1.406       .  S
S1822      H1833   1.407       .  S
C1824      C1825   1.404       .  A
C1824      S1829   1.805       .  S
C1825      C1826   1.401       .  A
C1825      H1830   1.083       .  S
C1826      C1827   1.410       .  A
C1827      C1828   1.395       .  A
C1827      S1831   1.802       .  S
C1828      H1832   1.084       .  S
S1829      H1834   1.407       .  S
S1831      H1835   1.403       .  S
C1837      C1838   1.404       .  A
C1837      C1842   1.405       .  A
C1837      H1847   1.084       .  S
C1838      C1843   1.484       .  S
C1838      C1839   1.412       .  A
C1839      C1840   1.400       .  A
C1839      S1844   1.807       .  S
C1840      C1841   1.406       .  A
C1840      H1845   1.084       .  S
C1841      C1842   1.415       .  A
C1842      S1846   1.802       .  S
C1843      C1848   1.406       .  A
C1843      C1852   1.402       .  A
S1844      H1860   1.404       .  S
S1846      H1857   1.406       .  S
C1848      C1849   1.401       .  A
C1848      S1853   1.807       .  S
C1849      C1850   1.409       .  A
C1849      H1854   1.082       .  S
C1850      C1851   1.420       .  A
C1851      C1852   1.409       .  A
C1851      S1855   1.807       .  S
C1852      H1856   1.083       .  S
S1853      H1858   1.407       .  S
S1855      H1859   1.407       .  S
C1861      C1862   1.404       .  A
C1861      C1866   1.405       .  A
C1861      H1871   1.084       .  S
C1862      C1867   1.486       .  S
C1862      C1863   1.412       .  A
C1863      C1864   1.397       .  A
C1863      S1868   1.806       .  S
C1864      C1865   1.407       .  A
C1864      H1869   1.083       .  S
C1865      C1866   1.417       .  A
C1866      S1870   1.801       .  S
C1867      C1872   1.411       .  A
C1867      C1876   1.405       .  A
S1868      H1884   1.406       .  S
S1870      H1881   1.408       .  S
C1872      C1873   1.404       .  A
C1872      S1877   1.807       .  S
C1873      C1874   1.404       .  A
C1873      H1878   1.083       .  S
C1874      C1875   1.412       .  A
C1875      C1876   1.401       .  A
C1875      S1879   1.803       .  S
C1876      H1880   1.084       .  S
S1877      H1882   1.407       .  S
S1879      H1883   1.406   1_565  S
C1885      C1886   1.404       .  A
C1885      C1890   1.404       .  A
C1885      H1895   1.084       .  S
C1886      C1891   1.485       .  S
C1886      C1887   1.410       .  A
C1887      C1888   1.399       .  A
C1887      S1892   1.804       .  S
C1888      C1889   1.408       .  A
C1888      H1893   1.083       .  S
C1889      C1890   1.415       .  A
C1890      S1894   1.797       .  S
C1891      C1896   1.408       .  A
C1891      C1900   1.403       .  A
S1892      H1908   1.406       .  S
S1894      H1905   1.407       .  S
C1896      C1897   1.404       .  A
C1896      S1901   1.806       .  S
C1897      C1898   1.408       .  A
C1897      H1902   1.083       .  S
C1898      C1899   1.417       .  A
C1899      C1900   1.402       .  A
C1899      S1903   1.804       .  S
C1900      H1904   1.084       .  S
S1901      H1906   1.407       .  S
S1903      H1907   1.407       .  S
C1909      C1910   1.400       .  A
C1909      C1914   1.396       .  A
C1909      H1919   1.084       .  S
C1910      C1915   1.477       .  S
C1910      C1911   1.413       .  A
C1911      C1912   1.402       .  A
C1911      S1916   1.807   1_545  S
C1912      C1913   1.407       .  A
C1912      H1917   1.084   1_545  S
C1913      C1914   1.415       .  A
C1914      S1918   1.802       .  S
C1915      C1920   1.409       .  A
C1915      C1924   1.401       .  A
S1916      H1932   1.403       .  S
S1918      H1929   1.407       .  S
C1920      C1921   1.402       .  A
C1920      S1925   1.807   1_545  S
C1921      C1922   1.404       .  A
C1921      H1926   1.083       .  S
C1922      C1923   1.415       .  A
C1923      C1924   1.399       .  A
C1923      S1927   1.805       .  S
C1924      H1928   1.084       .  S
S1925      H1930   1.407       .  S
S1927      H1931   1.406       .  S
C1933      C1934   1.402       .  A
C1933      C1938   1.397       .  A
C1933      H1943   1.084       .  S
C1934      C1939   1.481       .  S
C1934      C1935   1.412       .  A
C1935      C1936   1.403       .  A
C1935      S1940   1.802       .  S
C1936      C1937   1.404       .  A
C1936      H1941   1.084       .  S
C1937      C1938   1.414       .  A
C1938      S1942   1.804       .  S
C1939      C1944   1.409       .  A
C1939      C1948   1.401       .  A
S1940      H1956   1.406       .  S
S1942      H1953   1.407       .  S
C1944      C1945   1.402       .  A
C1944      S1949   1.808       .  S
C1945      C1946   1.407       .  A
C1945      H1950   1.083       .  S
C1946      C1947   1.416       .  A
C1947      C1948   1.401       .  A
C1947      S1951   1.802       .  S
C1948      H1952   1.084       .  S
S1949      H1954   1.407       .  S
S1951      H1955   1.408       .  S
C1957      C1958   1.401       .  A
C1957      C1962   1.397       .  A
C1957      H1967   1.084       .  S
C1958      C1963   1.481       .  S
C1958      C1959   1.413       .  A
C1959      C1960   1.403       .  A
C1959      S1964   1.803       .  S
C1960      C1961   1.404       .  A
C1960      H1965   1.084       .  S
C1961      C1962   1.414       .  A
C1962      S1966   1.805       .  S
C1963      C1968   1.409       .  A
C1963      C1972   1.401       .  A
S1964      H1980   1.405       .  S
S1966      H1977   1.407       .  S
C1968      C1969   1.406       .  A
C1968      S1973   1.806       .  S
C1969      C1970   1.406       .  A
C1969      H1974   1.083       .  S
C1970      C1971   1.415       .  A
C1971      C1972   1.399       .  A
C1971      S1975   1.805       .  S
C1972      H1976   1.084       .  S
S1973      H1978   1.407       .  S
S1975      H1979   1.407       .  S
C1981      C1982   1.403       .  A
C1981      C1986   1.398       .  A
C1981      H1991   1.084       .  S
C1982      C1987   1.475       .  S
C1982      C1983   1.413       .  A
C1983      C1984   1.396       .  A
C1983      S1988   1.805   1_655  S
C1984      C1985   1.402       .  A
C1984      H1989   1.084   1_655  S
C1985      C1986   1.413       .  A
C1986      S1990   1.805       .  S
C1987      C1992   1.406   1_655  A
C1987      C1996   1.399       .  A
S1988      H2004   1.404       .  S
S1990      H2001   1.407       .  S
C1992      C1993   1.402       .  A
C1992      S1997   1.807       .  S
C1993      C1994   1.408   1_455  A
C1993      H1998   1.082       .  S
C1994      C1995   1.419       .  A
C1995      C1996   1.401       .  A
C1995      S1999   1.810       .  S
C1996      H2000   1.083       .  S
S1997      H2002   1.407       .  S
S1999      H2003   1.407       .  S
C2005      C2006   1.399       .  A
C2005      C2010   1.398       .  A
C2005      H2015   1.084       .  S
C2006      C2011   1.467       .  S
C2006      C2007   1.408       .  A
C2007      C2008   1.392       .  A
C2007      S2012   1.804       .  S
C2008      C2009   1.404       .  A
C2008      H2013   1.082       .  S
C2009      C2010   1.415       .  A
C2010      S2014   1.801       .  S
C2011      C2016   1.406       .  A
C2011      C2020   1.399       .  A
S2012      H2028   1.405       .  S
S2014      H2025   1.407       .  S
C2016      C2017   1.398       .  A
C2016      S2021   1.807       .  S
C2017      C2018   1.405       .  A
C2017      H2022   1.083       .  S
C2018      C2019   1.413       .  A
C2019      C2020   1.396       .  A
C2019      S2023   1.799       .  S
C2020      H2024   1.084       .  S
S2021      H2026   1.407       .  S
S2023      H2027   1.407   1_565  S
C2029      C2030   1.399       .  A
C2029      C2034   1.398       .  A
C2029      H2039   1.083       .  S
C2030      C2035   1.472       .  S
C2030      C2031   1.410       .  A
C2031      C2032   1.400       .  A
C2031      S2036   1.804       .  S
C2032      C2033   1.406       .  A
C2032      H2037   1.084       .  S
C2033      C2034   1.415       .  A
C2034      S2038   1.810       .  S
C2035      C2040   1.408       .  A
C2035      C2044   1.401       .  A
S2036      H2052   1.405       .  S
S2038      H2049   1.407       .  S
C2040      C2041   1.399       .  A
C2040      S2045   1.807       .  S
C2041      C2042   1.402       .  A
C2041      H2046   1.083       .  S
C2042      C2043   1.411       .  A
C2043      C2044   1.397       .  A
C2043      S2047   1.801       .  S
C2044      H2048   1.084       .  S
S2045      H2050   1.407       .  S
S2047      H2051   1.406       .  S
C2053      C2054   1.400       .  A
C2053      C2058   1.397       .  A
C2053      H2063   1.084       .  S
C2054      C2059   1.467       .  S
C2054      C2055   1.409       .  A
C2055      C2056   1.394       .  A
C2055      S2060   1.809       .  S
C2056      C2057   1.405       .  A
C2056      H2061   1.082       .  S
C2057      C2058   1.418       .  A
C2058      S2062   1.804       .  S
C2059      C2064   1.406       .  A
C2059      C2068   1.399       .  A
S2060      H2076   1.402       .  S
S2062      H2073   1.407   1_545  S
C2064      C2065   1.399       .  A
C2064      S2069   1.807       .  S
C2065      C2066   1.405       .  A
C2065      H2070   1.083       .  S
C2066      C2067   1.416       .  A
C2067      C2068   1.396       .  A
C2067      S2071   1.804   1_545  S
C2068      H2072   1.084       .  S
S2069      H2074   1.407       .  S
S2071      H2075   1.407   1_565  S
C2077      C2078   1.403       .  A
C2077      C2082   1.401       .  A
C2077      H2087   1.084       .  S
C2078      C2083   1.476       .  S
C2078      C2079   1.410       .  A
C2079      C2080   1.395       .  A
C2079      S2084   1.805       .  S
C2080      C2081   1.403       .  A
C2080      H2085   1.084       .  S
C2081      C2082   1.414       .  A
C2082      S2086   1.803       .  S
C2083      C2088   1.406       .  A
C2083      C2092   1.401       .  A
S2084      H2100   1.405       .  S
S2086      H2097   1.407       .  S
C2088      C2089   1.402       .  A
C2088      S2093   1.806       .  S
C2089      C2090   1.409       .  A
C2089      H2094   1.082       .  S
C2090      C2091   1.417       .  A
C2091      C2092   1.397       .  A
C2091      S2095   1.804       .  S
C2092      H2096   1.084       .  S
S2093      H2098   1.407       .  S
S2095      H2099   1.408       .  S
C2101      C2102   1.402       .  A
C2101      C2106   1.397       .  A
C2101      H2111   1.084       .  S
C2102      C2107   1.480       .  S
C2102      C2103   1.413       .  A
C2103      C2104   1.402       .  A
C2103      S2108   1.804       .  S
C2104      C2105   1.403       .  A
C2104      H2109   1.084       .  S
C2105      C2106   1.412       .  A
C2106      S2110   1.803       .  S
C2107      C2112   1.410       .  A
C2107      C2116   1.401       .  A
S2108      H2124   1.405       .  S
S2110      H2121   1.406       .  S
C2112      C2113   1.401       .  A
C2112      S2117   1.808       .  S
C2113      C2114   1.404       .  A
C2113      H2118   1.083       .  S
C2114      C2115   1.417       .  A
C2115      C2116   1.401       .  A
C2115      S2119   1.803       .  S
C2116      H2120   1.084       .  S
S2117      H2122   1.407       .  S
S2119      H2123   1.407   1_455  S
C2125      C2126   1.400       .  A
C2125      C2130   1.398       .  A
C2125      H2135   1.084       .  S
C2126      C2131   1.477       .  S
C2126      C2127   1.412       .  A
C2127      C2128   1.400       .  A
C2127      S2132   1.806   1_655  S
C2128      C2129   1.405       .  A
C2128      H2133   1.084   1_655  S
C2129      C2130   1.417       .  A
C2130      S2134   1.804       .  S
C2131      C2136   1.408       .  A
C2131      C2140   1.403       .  A
S2132      H2148   1.404       .  S
S2134      H2145   1.407       .  S
C2136      C2137   1.400       .  A
C2136      S2141   1.807   1_655  S
C2137      C2138   1.405       .  A
C2137      H2142   1.083   1_655  S
C2138      C2139   1.415       .  A
C2139      C2140   1.400       .  A
C2139      S2143   1.805       .  S
C2140      H2144   1.084       .  S
S2141      H2146   1.407       .  S
S2143      H2147   1.407       .  S
C2149      C2150   1.400       .  A
C2149      C2154   1.397       .  A
C2149      H2159   1.084       .  S
C2150      C2155   1.480       .  S
C2150      C2151   1.413       .  A
C2151      C2152   1.405       .  A
C2151      S2156   1.806       .  S
C2152      C2153   1.407       .  A
C2152      H2157   1.084       .  S
C2153      C2154   1.417       .  A
C2154      S2158   1.804       .  S
C2155      C2160   1.409       .  A
C2155      C2164   1.402       .  A
S2156      H2172   1.403       .  S
S2158      H2169   1.408       .  S
C2160      C2161   1.403       .  A
C2160      S2165   1.806       .  S
C2161      C2162   1.404       .  A
C2161      H2166   1.081       .  S
C2162      C2163   1.415       .  A
C2163      C2164   1.402       .  A
C2163      S2167   1.803       .  S
C2164      H2168   1.084       .  S
S2165      H2170   1.407       .  S
S2167      H2171   1.406       .  S
C2173      C2174   1.405       .  A
C2173      C2178   1.406       .  A
C2173      H2183   1.084       .  S
C2174      C2179   1.482       .  S
C2174      C2175   1.411       .  A
C2175      C2176   1.394       .  A
C2175      S2180   1.806       .  S
C2176      C2177   1.406       .  A
C2176      H2181   1.084       .  S
C2177      C2178   1.414       .  A
C2178      S2182   1.801       .  S
C2179      C2184   1.410       .  A
C2179      C2188   1.401       .  A
S2180      H2196   1.405       .  S
S2182      H2193   1.407       .  S
C2184      C2185   1.404       .  A
C2184      S2189   1.806       .  S
C2185      C2186   1.406       .  A
C2185      H2190   1.083       .  S
C2186      C2187   1.416       .  A
C2187      C2188   1.401       .  A
C2187      S2191   1.803       .  S
C2188      H2192   1.084       .  S
S2189      H2194   1.407       .  S
S2191      H2195   1.407       .  S
C2197      C2198   1.403       .  A
C2197      C2202   1.400       .  A
C2197      H2207   1.084       .  S
C2198      C2203   1.490       .  S
C2198      C2199   1.416   1_655  A
C2199      C2200   1.401       .  A
C2199      S2204   1.805       .  S
C2200      C2201   1.405   1_455  A
C2200      H2205   1.084       .  S
C2201      C2202   1.417       .  A
C2202      S2206   1.803       .  S
C2203      C2208   1.415       .  A
C2203      C2212   1.403       .  A
S2204      H2220   1.406       .  S
S2206      H2217   1.407       .  S
C2208      C2209   1.408       .  A
C2208      S2213   1.807       .  S
C2209      C2210   1.404       .  A
C2209      H2214   1.083       .  S
C2210      C2211   1.411   1_655  A
C2211      C2212   1.396   1_455  A
C2211      S2215   1.802       .  S
C2212      H2216   1.084   1_655  S
S2213      H2218   1.407       .  S
S2215      H2219   1.407       .  S
C2221      C2222   1.402       .  A
C2221      C2226   1.399       .  A
C2221      H2231   1.084       .  S
C2222      C2227   1.484       .  S
C2222      C2223   1.414       .  A
C2223      C2224   1.405       .  A
C2223      S2228   1.804       .  S
C2224      C2225   1.405       .  A
C2224      H2229   1.084       .  S
C2225      C2226   1.415       .  A
C2226      S2230   1.806       .  S
C2227      C2232   1.410       .  A
C2227      C2236   1.403       .  A
S2228      H2244   1.404       .  S
S2230      H2241   1.407       .  S
C2232      C2233   1.402       .  A
C2232      S2237   1.807       .  S
C2233      C2234   1.403       .  A
C2233      H2238   1.083       .  S
C2234      C2235   1.415       .  A
C2235      C2236   1.404       .  A
C2235      S2239   1.803   1_565  S
C2236      H2240   1.084       .  S
S2237      H2242   1.407       .  S
S2239      H2243   1.406       .  S
C2245      C2246   1.400       .  A
C2245      C2250   1.398       .  A
C2245      H2255   1.084       .  S
C2246      C2251   1.480       .  S
C2246      C2247   1.411       .  A
C2247      C2248   1.403       .  A
C2247      S2252   1.805       .  S
C2248      C2249   1.410       .  A
C2248      H2253   1.084       .  S
C2249      C2250   1.418       .  A
C2250      S2254   1.802       .  S
C2251      C2256   1.409       .  A
C2251      C2260   1.401       .  A
S2252      H2268   1.404       .  S
S2254      H2265   1.407       .  S
C2256      C2257   1.404       .  A
C2256      S2261   1.805       .  S
C2257      C2258   1.404       .  A
C2257      H2262   1.083       .  S
C2258      C2259   1.415       .  A
C2259      C2260   1.399       .  A
C2259      S2263   1.804       .  S
C2260      H2264   1.084       .  S
S2261      H2266   1.407       .  S
S2263      H2267   1.407       .  S
C2269      C2270   1.400       .  A
C2269      C2274   1.398       .  A
C2269      H2279   1.084       .  S
C2270      C2275   1.479       .  S
C2270      C2271   1.412       .  A
C2271      C2272   1.402       .  A
C2271      S2276   1.804   1_545  S
C2272      C2273   1.405       .  A
C2272      H2277   1.084   1_545  S
C2273      C2274   1.416       .  A
C2274      S2278   1.804       .  S
C2275      C2280   1.408       .  A
C2275      C2284   1.401       .  A
S2276      H2292   1.405       .  S
S2278      H2289   1.407       .  S
C2280      C2281   1.404       .  A
C2280      S2285   1.806   1_545  S
C2281      C2282   1.407       .  A
C2281      H2286   1.083       .  S
C2282      C2283   1.416       .  A
C2283      C2284   1.400       .  A
C2283      S2287   1.804       .  S
C2284      H2288   1.084       .  S
S2285      H2290   1.407       .  S
S2287      H2291   1.407       .  S
C2293      C2294   1.402       .  A
C2293      C2298   1.401       .  A
C2293      H2303   1.084       .  S
C2294      C2299   1.481       .  S
C2294      C2295   1.413       .  A
C2295      C2296   1.400       .  A
C2295      S2300   1.805       .  S
C2296      C2297   1.404       .  A
C2296      H2301   1.084       .  S
C2297      C2298   1.414       .  A
C2298      S2302   1.803       .  S
C2299      C2304   1.407       .  A
C2299      C2308   1.403       .  A
S2300      H2316   1.406       .  S
S2302      H2313   1.407       .  S
C2304      C2305   1.400       .  A
C2304      S2309   1.808       .  S
C2305      C2306   1.408       .  A
C2305      H2310   1.082       .  S
C2306      C2307   1.418       .  A
C2307      C2308   1.404       .  A
C2307      S2311   1.801       .  S
C2308      H2312   1.084       .  S
S2309      H2314   1.406       .  S
S2311      H2315   1.407       .  S
C2317      C2318   1.401       .  A
C2317      C2322   1.399       .  A
C2317      H2327   1.084       .  S
C2318      C2323   1.484       .  S
C2318      C2319   1.413       .  A
C2319      C2320   1.402       .  A
C2319      S2324   1.805       .  S
C2320      C2321   1.407       .  A
C2320      H2325   1.083       .  S
C2321      C2322   1.416       .  A
C2322      S2326   1.803       .  S
C2323      C2328   1.411       .  A
C2323      C2332   1.404       .  A
S2324      H2340   1.405       .  S
S2326      H2337   1.407       .  S
C2328      C2329   1.401       .  A
C2328      S2333   1.807       .  S
C2329      C2330   1.404       .  A
C2329      H2334   1.083       .  S
C2330      C2331   1.413       .  A
C2331      C2332   1.403       .  A
C2331      S2335   1.803       .  S
C2332      H2336   1.084       .  S
S2333      H2338   1.407       .  S
S2335      H2339   1.407       .  S
C2341      C2342   1.401   1_554  A
C2341      C2346   1.397       .  A
C2341      H2351   1.084       .  S
C2342      C2347   1.480       .  S
C2342      C2343   1.414       .  A
C2343      C2344   1.402       .  A
C2343      S2348   1.805       .  S
C2344      C2345   1.404       .  A
C2344      H2349   1.084       .  S
C2345      C2346   1.414   1_556  A
C2346      S2350   1.803       .  S
C2347      C2352   1.410       .  A
C2347      C2356   1.400   1_556  A
S2348      H2364   1.405       .  S
S2350      H2361   1.407       .  S
C2352      C2353   1.405       .  A
C2352      S2357   1.806       .  S
C2353      C2354   1.406   1_556  A
C2353      H2358   1.083       .  S
C2354      C2355   1.416       .  A
C2355      C2356   1.397       .  A
C2355      S2359   1.804       .  S
C2356      H2360   1.084       .  S
S2357      H2362   1.407       .  S
S2359      H2363   1.407       .  S
C2365      C2366   1.404       .  A
C2365      C2370   1.405       .  A
C2365      H2375   1.084       .  S
C2366      C2371   1.486       .  S
C2366      C2367   1.413       .  A
C2367      C2368   1.400       .  A
C2367      S2372   1.804       .  S
C2368      C2369   1.405       .  A
C2368      H2373   1.084       .  S
C2369      C2370   1.414       .  A
C2370      S2374   1.802       .  S
C2371      C2376   1.411       .  A
C2371      C2380   1.400       .  A
S2372      H2388   1.406       .  S
S2374      H2385   1.407       .  S
C2376      C2377   1.410       .  A
C2376      S2381   1.805       .  S
C2377      C2378   1.408       .  A
C2377      H2382   1.083       .  S
C2378      C2379   1.418       .  A
C2379      C2380   1.397       .  A
C2379      S2383   1.806       .  S
C2380      H2384   1.084       .  S
S2381      H2386   1.407       .  S
S2383      H2387   1.407       .  S
C2389      C2390   1.401       .  A
C2389      C2394   1.397       .  A
C2389      H2399   1.084       .  S
C2390      C2395   1.484       .  S
C2390      C2391   1.416       .  A
C2391      C2392   1.407       .  A
C2391      S2396   1.806       .  S
C2392      C2393   1.405       .  A
C2392      H2397   1.084       .  S
C2393      C2394   1.414       .  A
C2394      S2398   1.804       .  S
C2395      C2400   1.410       .  A
C2395      C2404   1.403       .  A
S2396      H2412   1.403       .  S
S2398      H2409   1.407       .  S
C2400      C2401   1.405       .  A
C2400      S2405   1.806       .  S
C2401      C2402   1.406       .  A
C2401      H2406   1.083       .  S
C2402      C2403   1.415       .  A
C2403      C2404   1.400       .  A
C2403      S2407   1.806       .  S
C2404      H2408   1.084       .  S
S2405      H2410   1.407       .  S
S2407      H2411   1.407       .  S
C2413      C2414   1.401       .  A
C2413      C2418   1.400       .  A
C2413      H2423   1.084       .  S
C2414      C2419   1.477       .  S
C2414      C2415   1.412   1_554  A
C2415      C2416   1.400       .  A
C2415      S2420   1.807       .  S
C2416      C2417   1.405   1_556  A
C2416      H2421   1.084       .  S
C2417      C2418   1.415       .  A
C2418      S2422   1.803       .  S
C2419      C2424   1.408       .  A
C2419      C2428   1.400       .  A
S2420      H2436   1.404       .  S
S2422      H2433   1.407       .  S
C2424      C2425   1.402       .  A
C2424      S2429   1.806   1_554  S
C2425      C2426   1.406       .  A
C2425      H2430   1.083   1_554  S
C2426      C2427   1.416       .  A
C2427      C2428   1.399       .  A
C2427      S2431   1.804       .  S
C2428      H2432   1.084       .  S
S2429      H2434   1.407       .  S
S2431      H2435   1.407       .  S
C2437      C2438   1.404       .  A
C2437      C2442   1.401       .  A
C2437      H2447   1.084       .  S
C2438      C2443   1.481       .  S
C2438      C2439   1.411       .  A
C2439      C2440   1.399       .  A
C2439      S2444   1.805       .  S
C2440      C2441   1.406       .  A
C2440      H2445   1.084       .  S
C2441      C2442   1.414       .  A
C2442      S2446   1.804       .  S
C2443      C2448   1.411       .  A
C2443      C2452   1.399       .  A
S2444      H2460   1.405       .  S
S2446      H2457   1.407       .  S
C2448      C2449   1.406       .  A
C2448      S2453   1.806       .  S
C2449      C2450   1.405       .  A
C2449      H2454   1.083       .  S
C2450      C2451   1.416       .  A
C2451      C2452   1.397       .  A
C2451      S2455   1.804       .  S
C2452      H2456   1.084       .  S
S2453      H2458   1.407       .  S
S2455      H2459   1.407       .  S
C2461      C2462   1.401       .  A
C2461      C2466   1.400       .  A
C2461      H2471   1.084       .  S
C2462      C2467   1.484       .  S
C2462      C2463   1.412       .  A
C2463      C2464   1.405       .  A
C2463      S2468   1.802       .  S
C2464      C2465   1.407       .  A
C2464      H2469   1.084       .  S
C2465      C2466   1.416       .  A
C2466      S2470   1.803       .  S
C2467      C2472   1.408       .  A
C2467      C2476   1.405       .  A
S2468      H2484   1.406       .  S
S2470      H2481   1.407       .  S
C2472      C2473   1.399       .  A
C2472      S2477   1.807       .  S
C2473      C2474   1.405       .  A
C2473      H2478   1.083       .  S
C2474      C2475   1.415       .  A
C2475      C2476   1.407       .  A
C2475      S2479   1.802       .  S
C2476      H2480   1.083       .  S
S2477      H2482   1.407       .  S
S2479      H2483   1.407       .  S
C2485      C2486   1.402   1_554  A
C2485      C2490   1.401       .  A
C2485      H2495   1.084       .  S
C2486      C2491   1.485       .  S
C2486      C2487   1.413       .  A
C2487      C2488   1.402       .  A
C2487      S2492   1.803       .  S
C2488      C2489   1.404       .  A
C2488      H2493   1.084       .  S
C2489      C2490   1.417   1_556  A
C2490      S2494   1.804       .  S
C2491      C2496   1.410       .  A
C2491      C2500   1.401   1_556  A
S2492      H2508   1.406       .  S
S2494      H2505   1.407       .  S
C2496      C2497   1.406       .  A
C2496      S2501   1.806       .  S
C2497      C2498   1.408   1_556  A
C2497      H2502   1.083       .  S
C2498      C2499   1.417       .  A
C2499      C2500   1.399       .  A
C2499      S2503   1.804       .  S
C2500      H2504   1.084       .  S
S2501      H2506   1.407       .  S
S2503      H2507   1.408       .  S
