geometry optimzed in LAMMPS
_audit_creation_date              2020-12-01 
_audit_creation_method            'lammps2cif' 
_symmetry_space_group_name_H-M    'P1' 
_symmetry_Int_Tables_number       1 
_symmetry_cell_setting            triclinic 
loop_ 
_symmetry_equiv_pos_as_xyz 
  x,y,z 
_cell_length_a                    45.13657787 
_cell_length_b                    44.66343363835153 
_cell_length_c                    36.28977370492982 
_cell_angle_alpha                 90.15648075956162 
_cell_angle_beta                  90.2262139615434 
_cell_angle_gamma                 89.4240398146884 
loop_ 
_atom_site_label 
_atom_site_type_symbol 
_atom_site_fract_x 
_atom_site_fract_y 
_atom_site_fract_z 
_atom_site_charge 
C1          C  0.39931814  0.30663846  0.29664193     0.81300
N2          N  0.41656692  0.29343415  0.32284325    -0.77000
C3          C  0.44448323  0.30351395  0.32936153     0.83700
N4          N  0.45487638  0.32730870  0.30986424    -0.77000
C5          C  0.43747023  0.34022514  0.28335790     0.83800
N6          N  0.41010891  0.32961965  0.27690235    -0.78700
C7          C  0.36335690  0.42196876  0.04927556     0.81300
N8          N  0.35223525  0.39609825  0.06317838    -0.77000
C9          C  0.32346748  0.38866152  0.05701417     0.83700
N10         N  0.30566894  0.40734032  0.03706851    -0.77000
C11         C  0.31645753  0.43302959  0.02254876     0.83800
N12         N  0.34539243  0.44019438  0.02864810    -0.78700
C13         C  0.19313634  0.38394275  0.31692879     0.81300
N14         N  0.16729424  0.39692800  0.30573662    -0.77000
C15         C  0.16139508  0.42618126  0.31313101     0.83700
N16         N  0.18152839  0.44265710  0.33216507    -0.77000
C17         C  0.20739115  0.43001994  0.34406631     0.83800
N18         N  0.21317064  0.40058570  0.33621743    -0.78700
C19         C  0.44673630  0.13825242  0.06845825     0.81300
N20         N  0.42228121  0.15057822  0.08395299    -0.77000
C21         C  0.41384188  0.17899979  0.07593218     0.83700
N22         N  0.43009411  0.19534694  0.05196455    -0.77000
C23         C  0.45483662  0.18325362  0.03637565     0.83800
N24         N  0.46300447  0.15460791  0.04448043    -0.78700
C25         C  0.08595784  0.43974833  0.26772887     0.43500
N26         N  0.06684068  0.46828063  0.22649095     0.02400
C27         C  0.42560542  0.03358957  0.22953265    -0.05500
H28         H  0.43228518  0.42044130  0.20941407     0.07900
C29         C  0.46570727  0.44156495  0.08468723    -0.05800
Co30       Co  0.00922526  0.49563940  0.24941891     0.74200
N31         N  0.46064231  0.45786840  0.22203428    -0.25000
Co32       Co  0.45546177  0.49045971  0.17979925     0.74100
C33         C  0.43829938  0.42832645  0.09890184     0.43600
N34         N  0.04438995  0.46002311  0.11821904     0.02000
N35         N  0.45690358  0.45795156  0.13952063     0.02100
N36         N  0.45831071  0.03969428  0.27608921    -0.45800
H37         H  0.04570561  0.44628534  0.30588891     0.07900
N38         N  0.98186151  0.45906820  0.24831065     0.02400
N39         N  0.45582851  0.01888515  0.14072528     0.02200
C40         C  0.44907485  0.05912364  0.10934965     0.43800
N41         N  0.06462943  0.46218544  0.14465209    -0.24400
C42         C  0.03571049  0.05057770  0.26993509    -0.05400
N43         N  0.09091782  0.45258787  0.23488002    -0.45500
N44         N  0.43839061  0.04288491  0.13778018    -0.45800
C45         C  0.06077454  0.06666873  0.25478925     0.43500
N46         N  0.46949638  0.02231787  0.24964107     0.02400
N47         N  0.06247960  0.02024325  0.14468124    -0.24500
N48         N  0.04659101  0.46760678  0.25242555    -0.25000
N49         N  0.04458760  0.01934091  0.11601945     0.02100
H50         H  0.10467792  0.04071270  0.15441056     0.07900
H51         H  0.49023994  0.04962660  0.07367072     0.08000
N52         N  0.45047859  0.01819948  0.22260147    -0.25000
N53         N  0.47578400  0.45944173  0.11202251    -0.24600
N54         N  0.05649735  0.02494616  0.22608077     0.02400
C55         C  0.46363913  0.41861654  0.26005837     0.43800
C56         C  0.08200108  0.43771384  0.14325383    -0.05900
N57         N  0.47747375  0.01909273  0.11616884    -0.24600
H58         H  0.97708786  0.43937832  0.05717740     0.08000
N59         N  0.98459991  0.43578210  0.27044296    -0.45800
H60         H  0.09972587  0.43219609  0.16225656     0.08000
C61         C  0.08002519  0.04845617  0.10002119     0.43700
C62         C  0.05658355  0.44979499  0.27977797    -0.05400
Co63       Co  0.06359184  0.49770814  0.18306103     0.73800
N64         N  0.04649203  0.43502102  0.09897943    -0.45600
C65         C  0.43076308  0.04798511  0.26482314     0.43900
N66         N  0.07265649  0.04952539  0.22779169    -0.45500
Co67       Co  0.01094370  0.49128378  0.11312237     0.73900
C68         C  0.47487740  0.04331820  0.09499372    -0.05900
C69         C  0.44860798  0.43072948  0.22713231    -0.05400
N70         N  0.03473051  0.02514865  0.25039985    -0.25000
N71         N  0.43433900  0.44009991  0.13264280    -0.45700
H72         H  0.40529627  0.03218728  0.21371992     0.07900
C73         C  0.08509433  0.03828669  0.13742668    -0.05800
Cl74       Cl  0.01010306  0.49330507  0.18139281    -0.48800
C75         C  0.06977604  0.42000613  0.11311282     0.43700
H76         H  0.02007780  0.05731479  0.29094845     0.07900
N77         N  0.05489399  0.03516887  0.08794025    -0.45600
C78         C  0.09835599  0.29976899  0.08771682     0.81300
N79         N  0.08573947  0.28418297  0.05954256    -0.77000
C80         C  0.06291216  0.29679730  0.04009282     0.83700
N81         N  0.05376278  0.32521393  0.04796976    -0.77000
C82         C  0.06701963  0.34074915  0.07548249     0.83800
N83         N  0.08880242  0.32766677  0.09543602    -0.78700
C84         C  0.35513455  0.05716963  0.31114577     0.81300
N85         N  0.33621866  0.03846255  0.32862758    -0.77000
C86         C  0.31073728  0.04930856  0.34372956     0.83700
N87         N  0.30415990  0.07900592  0.34093766    -0.77000
C88         C  0.32275558  0.09782822  0.32318595     0.83800
N89         N  0.34831589  0.08678731  0.30849045    -0.78700
C90         C  0.06582031  0.14576190  0.29561043     0.81300
N91         N  0.04943249  0.16434418  0.31738579    -0.77000
C92         C  0.06038190  0.19134177  0.32800649     0.83700
N93         N  0.08813862  0.19931305  0.31745388    -0.77000
C94         C  0.10454350  0.18072884  0.29570260     0.83800
N95         N  0.09323926  0.15411741  0.28505700    -0.78700
C96         C  0.19484361  0.07979884  0.05658695     0.81300
N97         N  0.21194054  0.06012401  0.03721219    -0.77000
C98         C  0.20046692  0.03394756  0.02463211     0.83700
N99         N  0.17165466  0.02737112  0.03210184    -0.77000
C100        C  0.15439782  0.04692940  0.05160571     0.83800
N101        N  0.16612545  0.07314514  0.06356376    -0.78700
C102        C  0.32080411  0.30071681  0.25761334     0.43500
N103        N  0.28160855  0.29165480  0.22611564     0.02400
C104        C  0.20035371  0.16444798  0.22448237    -0.05500
H105        H  0.31446833  0.14342505  0.22336547     0.07900
C106        C  0.32085985  0.20764831  0.10495436    -0.05800
Co107      Co  0.25261079  0.23652705  0.25298258     0.74200
N108        N  0.28926139  0.18417496  0.22929051    -0.25000
Co109      Co  0.26058849  0.18171731  0.18558357     0.74100
C110        C  0.33848126  0.18429958  0.12259181     0.43600
N111        N  0.28539266  0.27376186  0.11812761     0.02000
N112        N  0.29602312  0.18629483  0.14850497     0.02100
N113        N  0.19705607  0.20143557  0.26719015    -0.45800
H114        H  0.31319973  0.26037748  0.29569772     0.07900
N115        N  0.28623178  0.20375742  0.25613951     0.02400
N116        N  0.23231169  0.17751537  0.14133050     0.02200
C117        C  0.20525449  0.15708515  0.09989586     0.43800
N118        N  0.28086464  0.29374451  0.14424519    -0.24400
C119        C  0.20329672  0.28057500  0.28039231    -0.05400
N120        N  0.30443720  0.31002803  0.22838448    -0.45500
N121        N  0.21741665  0.15297601  0.13339659    -0.45800
C122        C  0.19005503  0.30855249  0.26672545     0.43500
N123        N  0.22212364  0.20262783  0.24864853     0.02400
N124        N  0.21704703  0.28288916  0.14198554    -0.24500
N125        N  0.28273440  0.27071726  0.25185248    -0.25000
N126        N  0.22192580  0.26275629  0.11577534     0.02100
H127        H  0.17837395  0.30954879  0.15552100     0.07900
H128        H  0.21170182  0.19670480  0.06026133     0.08000
N129        N  0.22467558  0.18153175  0.22305847    -0.25000
N130        N  0.29513383  0.20734136  0.12291950    -0.24600
N131        N  0.21698739  0.28838169  0.22438768     0.02400
C132        C  0.31883245  0.17190171  0.27551666     0.43800
C133        C  0.29609308  0.31843911  0.13684774    -0.05900
N134        N  0.23182648  0.19728959  0.11449599    -0.24600
H135        H  0.32651287  0.22282543  0.08297532     0.08000
N136        N  0.30276473  0.19649222  0.28527111    -0.45800
H137        H  0.29465802  0.33924724  0.15209108     0.08000
C138        C  0.17766456  0.27735599  0.10547066     0.43700
C139        C  0.30640235  0.27479245  0.27326410    -0.05400
Co140      Co  0.24894779  0.28970069  0.18406240     0.73800
N141        N  0.30297916  0.28415226  0.09177129    -0.45600
C142        C  0.18222389  0.17789844  0.25363018     0.43900
N143        N  0.20006019  0.31187288  0.23214603    -0.45500
Co144      Co  0.25877159  0.23533328  0.11692337     0.73900
C145        C  0.21490512  0.18642966  0.08694948    -0.05900
C146        C  0.30956864  0.16368770  0.23866655    -0.05400
N147        N  0.21946218  0.26962820  0.25217117    -0.25000
N148        N  0.32178817  0.17180314  0.14916190    -0.45700
H149        H  0.19518010  0.14615910  0.20604651     0.07900
C150        C  0.18934039  0.29361210  0.13756606    -0.05800
Cl151      Cl  0.25522327  0.23584444  0.18488968    -0.48800
C152        C  0.31086372  0.31220083  0.10224277     0.45700
H153        H  0.20377849  0.27206865  0.30826241     0.07900
N154        N  0.19910176  0.25888230  0.09347237    -0.45600
N155        N  0.22983208  0.45652275  0.43828388    -0.35500
N156        N  0.25896244  0.49271521  0.49527218    -0.56100
N157        N  0.28796313  0.02612461  0.43801843    -0.35500
N158        N  0.26323620  0.48651431  0.38041234    -0.56100
C159        C  0.22018451  0.44258838  0.46904601     0.28100
C160        C  0.22208472  0.43947936  0.40888014     0.28100
C161        C  0.30383436  0.03463438  0.46800656     0.28000
C162        C  0.30342844  0.03419068  0.40787622     0.28000
C163        C  0.23976363  0.47798879  0.51702853     0.36700
C164        C  0.27243070  0.01237048  0.51698132     0.36700
C165        C  0.24475425  0.47030491  0.35872974     0.36700
C166        C  0.27116400  0.01181335  0.35845238     0.36700
C167        C  0.20596494  0.41639256  0.45899492    -0.20800
C168        C  0.20711611  0.41445446  0.42128431    -0.20800
C169        C  0.32950360  0.04865167  0.45670698    -0.20800
C170        C  0.32930709  0.04830615  0.41893815    -0.20800
C171        C  0.24127964  0.48916769  0.55268284    -0.21900
C172        C  0.26287419  0.00955867  0.55301245    -0.21900
C173        C  0.24752197  0.47952366  0.32245847    -0.21900
C174        C  0.26805485  0.50226686  0.32225084    -0.21900
C175        C  0.22220755  0.45344995  0.50580189    -0.17200
C176        C  0.22611615  0.44677089  0.37110041    -0.17200
C177        C  0.29432154  0.03091043  0.37062469    -0.17200
C178        C  0.29531368  0.03144992  0.50529498    -0.17200
H179        H  0.19526359  0.40045993  0.47683123     0.15700
H180        H  0.19740533  0.39673771  0.40502300     0.15700
H181        H  0.34660197  0.05839719  0.47378654     0.15700
H182        H  0.34628885  0.05773981  0.40163204     0.15700
H183        H  0.22911362  0.48165622  0.57652087     0.14000
H184        H  0.27062748  0.02170726  0.57696864     0.14000
H185        H  0.23602067  0.47073455  0.29861063     0.14000
H186        H  0.26849105  0.02202203  0.29882894     0.14000
H187        H  0.23950520  0.47733192  0.43731394     0.27200
H188        H  0.26701289  0.01699110  0.43791719     0.27200
N189        N  0.47841370  0.20784248  0.94168726    -0.35500
N190        N  0.00928804  0.24291531  0.99867976    -0.56100
N191        N  0.04050938  0.27699052  0.94259473    -0.35500
N192        N  0.00523547  0.24884961  0.88402144    -0.56100
C193        C  0.46308440  0.19807701  0.97134101     0.28100
C194        C  0.46261962  0.20054477  0.91121162     0.28100
C195        C  0.05083767  0.29045925  0.97356082     0.28000
C196        C  0.04880245  0.29373451  0.91338653     0.28000
C197        C  0.49447815  0.21946367  0.02163066     0.36700
C198        C  0.02929372  0.25622918  0.02088941     0.36700
C199        C  0.49249398  0.22697192  0.86315684     0.36700
C200        C  0.02428789  0.26434034  0.86269283     0.36700
C201        C  0.43752992  0.18399093  0.95948524    -0.20800
C202        C  0.43725736  0.18546213  0.92172079    -0.20800
C203        C  0.06633291  0.31586897  0.96377591    -0.20800
C204        C  0.06506198  0.31793786  0.92607236    -0.20800
C205        C  0.50400665  0.22122284  0.05789755    -0.21900
C206        C  0.02693408  0.24509548  0.05642993    -0.21900
C207        C  0.50133204  0.23208193  0.82720161    -0.21900
C208        C  0.02112219  0.25536718  0.82626959    -0.21900
C209        C  0.47171970  0.20054934  0.00882318    -0.17200
C210        C  0.47065301  0.20600201  0.87403746    -0.17200
C211        C  0.04384181  0.28699668  0.87551558    -0.17200
C212        C  0.04788018  0.27998227  0.01032109    -0.17200
H213        H  0.42073265  0.17366077  0.97628310     0.15700
H214        H  0.42013735  0.17644458  0.90406143     0.15700
H215        H  0.07793300  0.33119139  0.98175231     0.15700
H216        H  0.07550577  0.33519783  0.90998299     0.15700
H217        H  0.49643559  0.20820458  0.08108335     0.14000
H218        H  0.03926815  0.25174549  0.08067169     0.14000
H219        H  0.49362556  0.22078888  0.80259428     0.14000
H220        H  0.03294562  0.26374855  0.80261307     0.14000
H221        H  0.49909997  0.21759620  0.94201428     0.27200
H222        H  0.02971036  0.25677108  0.94129373     0.27200
N223        N  0.00548901  0.24855315  0.36501804    -0.35500
N224        N  0.03908474  0.21686205  0.42301176    -0.56100
N225        N  0.00427934  0.24772874  0.47989302    -0.35500
N226        N  0.46875826  0.28032174  0.42489935    -0.56100
C227        C  0.02017751  0.22802213  0.34419922     0.28100
C228        C  0.48402531  0.26655881  0.34592507     0.28100
C229        C  0.02203778  0.23064390  0.50194294     0.28000
C230        C  0.48495245  0.26353237  0.50393576     0.28000
C231        C  0.05363205  0.20631995  0.39303957     0.36700
C232        C  0.05437620  0.20719704  0.45295835     0.36700
C233        C  0.45717880  0.29502341  0.39542722     0.36700
C234        C  0.45664938  0.29293274  0.45538012     0.36700
C235        C  0.00873838  0.22853860  0.30865967    -0.20800
C236        C  0.48606569  0.25589282  0.31007757    -0.20800
C237        C  0.01341512  0.23497466  0.53822390    -0.20800
C238        C  0.48992579  0.25445392  0.54001135    -0.20800
C239        C  0.07819568  0.18968701  0.40404552    -0.21900
C240        C  0.07868735  0.19024656  0.44172590    -0.21900
C241        C  0.43737232  0.31686293  0.40721495    -0.21900
C242        C  0.43701547  0.31557341  0.44496190    -0.21900
C243        C  0.04427991  0.20959582  0.35589104    -0.17200
C244        C  0.46318740  0.28850721  0.35786621    -0.17200
C245        C  0.46266673  0.28467808  0.49261307    -0.17200
C246        C  0.04622965  0.21189283  0.49038683    -0.17200
H247        H  0.01585291  0.21512146  0.28538015     0.15700
H248        H  0.47261773  0.26241996  0.28662174     0.15700
H249        H  0.02326743  0.22494167  0.56252400     0.15700
H250        H  0.47788760  0.26163351  0.56426352     0.15700
H251        H  0.09398104  0.17785868  0.38684320     0.14000
H252        H  0.09498649  0.17891027  0.45874662     0.14000
H253        H  0.42449124  0.33219607  0.39037982     0.14000
H254        H  0.42386352  0.32995509  0.46267331     0.14000
H255        H  0.01027757  0.25419832  0.39201557     0.27200
H256        H  0.00591436  0.24960309  0.45172289     0.27200
N257        N  0.25661848  0.48523691  0.86989202    -0.35500
N258        N  0.29159209  0.45495082  0.92718134    -0.56100
N259        N  0.25676175  0.48580963  0.98477762    -0.35500
N260        N  0.22457149  0.01322036  0.92908077    -0.56100
C261        C  0.27676017  0.47093318  0.84845499     0.28100
C262        C  0.24440142  0.00488859  0.85047365     0.28100
C263        C  0.27784580  0.47233364  0.00602643     0.28000
C264        C  0.24172797  0.99796401  0.00743707     0.28000
C265        C  0.30227861  0.44027023  0.89723844     0.36700
C266        C  0.30294741  0.44093081  0.95717348     0.36700
C267        C  0.21031718  0.02477664  0.89938630     0.36700
C268        C  0.20891853  0.02174032  0.95913089     0.36700
C269        C  0.27431757  0.48154462  0.81264327    -0.20800
C270        C  0.25635371  0.00557782  0.81531323    -0.20800
C271        C  0.27571688  0.48368282  0.04155697    -0.20800
C272        C  0.25179593  0.99473883  0.04339646    -0.20800
C273        C  0.32071543  0.41695984  0.90826181    -0.21900
C274        C  0.32111730  0.41732178  0.94605282    -0.21900
C275        C  0.18561202  0.04097568  0.91068150    -0.21900
C276        C  0.18469147  0.03904494  0.94827514    -0.21900
C277        C  0.29700560  0.44829515  0.85997508    -0.17200
C278        C  0.22022940  0.02290796  0.86242527    -0.17200
C279        C  0.21717498  0.01635004  0.99639613    -0.17200
C280        C  0.29844213  0.44963763  0.99448117    -0.17200
H281        H  0.28706103  0.47451847  0.78888274     0.15700
H282        H  0.24969709  0.01980094  0.79259045     0.15700
H283        H  0.28920448  0.47748339  0.06510534     0.15700
H284        H  0.24286246  0.00540417  0.06781338     0.15700
H285        H  0.33278333  0.40137889  0.89087405     0.14000
H286        H  0.33362036  0.40199495  0.96331929     0.14000
H287        H  0.17010197  0.05352909  0.89380240     0.14000
H288        H  0.16829978  0.04991542  0.96551614     0.14000
H289        H  0.25256432  0.48095561  0.89732103     0.27200
H290        H  0.25224544  0.48074616  0.95757027     0.27200
C291        C  0.32332305  0.39892100  0.78363578     0.81300
N292        N  0.35049922  0.41002367  0.77806793    -0.77000
C293        C  0.36102741  0.43251344  0.79910172     0.83700
N294        N  0.34365044  0.44479500  0.82567463    -0.77000
C295        C  0.31591938  0.43410141  0.83138345     0.83800
N296        N  0.30581447  0.41074215  0.81066676    -0.78700
C297        C  0.40891149  0.18138540  0.81359224     0.81300
N298        N  0.42733254  0.19946691  0.83318480    -0.77000
C299        C  0.45394077  0.18882445  0.84566968     0.83700
N300        N  0.46206205  0.15997835  0.83811437    -0.77000
C301        C  0.44389223  0.14193718  0.81812254     0.83800
N302        N  0.41736911  0.15279371  0.80620391    -0.78700
C303        C  0.20093058  0.08502415  0.79839850     0.81300
N304        N  0.21659221  0.06713281  0.82186012    -0.77000
C305        C  0.20430958  0.04143290  0.83473385     0.83700
N306        N  0.17621021  0.03410267  0.82462880    -0.77000
C307        C  0.16061614  0.05212060  0.80140404     0.83800
N308        N  0.17315367  0.07730696  0.78854747    -0.78700
C309        C  0.07487515  0.35053612  0.82225677     0.81300
N310        N  0.05565689  0.33350030  0.84183135    -0.77000
C311        C  0.06183138  0.30406339  0.84853776     0.83700
N312        N  0.08726089  0.29168617  0.83514730    -0.77000
C313        C  0.10666889  0.30856182  0.81579662     0.83800
N314        N  0.10040558  0.33792456  0.80950110    -0.78700
C315        C  0.07192394  0.14815993  0.54860220     0.81300
N316        N  0.10034497  0.15613936  0.55578162    -0.77000
C317        C  0.11076391  0.18311859  0.54473922     0.83700
N318        N  0.09240472  0.20222140  0.52598288    -0.77000
C319        C  0.06384745  0.19444830  0.51824636     0.83800
N320        N  0.05376168  0.16740248  0.52984011    -0.78700
C321        C  0.31945625  0.09303896  0.56710645     0.81300
N322        N  0.34654654  0.08288231  0.57765053    -0.77000
C323        C  0.35672476  0.05576867  0.56625359     0.83700
N324        N  0.33959458  0.03862894  0.54391090    -0.77000
C325        C  0.31226717  0.04847693  0.53331419     0.83800
N326        N  0.30236336  0.07584572  0.54467909    -0.78700
C327        C  0.18194317  0.29524154  0.77039096     0.43500
N328        N  0.20062142  0.26739484  0.72816947     0.02400
C329        C  0.33958691  0.19944422  0.72838670    -0.05500
H330        H  0.33154502  0.31834216  0.70867111     0.07900
C331        C  0.29730707  0.29476699  0.58526409    -0.05800
Co332      Co  0.25836296  0.23939832  0.75007058     0.74200
N333        N  0.30498020  0.27989620  0.72250587    -0.25000
Co334      Co  0.30980630  0.24685075  0.68044925     0.74100
C335        C  0.32498602  0.30807522  0.59864780     0.43600
N336        N  0.22158215  0.27666353  0.61987173     0.02000
N337        N  0.30739994  0.27892208  0.64000182     0.02100
N338        N  0.30699439  0.19500451  0.77500501    -0.45800
H339        H  0.22258134  0.28803349  0.80809999     0.07900
N340        N  0.28582978  0.27551822  0.74947020     0.02400
N341        N  0.30954543  0.21320745  0.63873398     0.02200
C342        C  0.31593504  0.17229592  0.60833553     0.43800
N343        N  0.20165300  0.27464346  0.64648489    -0.24400
C344        C  0.23067669  0.17823391  0.76592030    -0.05400
N345        N  0.17664425  0.28293317  0.73720389    -0.45500
N346        N  0.32687030  0.18907543  0.63634355    -0.45800
C347        C  0.20663549  0.16088373  0.75040024     0.43500
N348        N  0.29584557  0.21159015  0.74782162     0.02400
N349        N  0.20290525  0.20949396  0.64023028    -0.24500
N350        N  0.22117784  0.26765036  0.75395732    -0.25000
N351        N  0.22097391  0.21217881  0.61209856     0.02100
H352        H  0.16093262  0.18810236  0.64732731     0.07900
H353        H  0.27480704  0.18135882  0.57211851     0.08000
N354        N  0.31484178  0.21489844  0.72078320    -0.25000
N355        N  0.28791401  0.27721197  0.61302565    -0.24600
N356        N  0.20863371  0.20269518  0.72176655     0.02400
C357        C  0.30126658  0.31953051  0.76009644     0.43800
C358        C  0.18488516  0.29968102  0.64589904    -0.05900
N359        N  0.28783316  0.21268904  0.61404115    -0.24600
H360        H  0.28751078  0.29592740  0.55805650     0.08000
N361        N  0.28312326  0.29834566  0.77231445    -0.45800
H362        H  0.16752455  0.30538245  0.66520340     0.08000
C363        C  0.18591699  0.18341415  0.59299572     0.43700
C364        C  0.21147736  0.28503821  0.78190689    -0.05400
Co365      Co  0.20289926  0.23842920  0.68416216     0.73800
N366        N  0.21983511  0.30200729  0.60133059    -0.45600
C367        C  0.33435413  0.18606395  0.76410101     0.43900
N368        N  0.19375654  0.17729278  0.72329179    -0.45500
Co369      Co  0.25452012  0.24469939  0.61389294     0.73900
C370        C  0.29019911  0.18799584  0.59345644    -0.05900
C371        C  0.31611485  0.30757921  0.72696803    -0.05400
N372        N  0.23027766  0.20352588  0.74643337    -0.25000
N373        N  0.32978746  0.29668077  0.63237659    -0.45700
H374        H  0.35995615  0.20040098  0.71284809     0.07900
C375        C  0.18068275  0.19140527  0.63110676    -0.05800
Cl376      Cl  0.25641978  0.24228743  0.68208130    -0.48800
C377        C  0.19722434  0.31763772  0.61611048     0.43700
H378        H  0.24617563  0.17277172  0.78773848     0.07900
N379        N  0.21089680  0.19774171  0.58249748    -0.45600
C380        C  0.39836793  0.31283044  0.54754486     0.81300
N381        N  0.41044101  0.33743676  0.56356953    -0.77000
C382        C  0.43953334  0.34378792  0.55890234     0.83700
N383        N  0.45682934  0.32532480  0.53808137    -0.77000
C384        C  0.44504241  0.30091583  0.52125507     0.83800
N385        N  0.41573254  0.29475894  0.52605615    -0.78700
C386        C  0.16085543  0.43281076  0.56823814     0.81300
N387        N  0.17795722  0.44868842  0.54472164    -0.77000
C388        C  0.20486610  0.43761597  0.53416882     0.83700
N389        N  0.21431658  0.41041384  0.54671275    -0.77000
C390        C  0.19722869  0.39464958  0.57033082     0.83800
N391        N  0.17073355  0.40600863  0.58078537    -0.78700
C392        C  0.43938090  0.43759716  0.76171008     0.43500
N393        N  0.47864392  0.44403755  0.73021791     0.02400
C394        C  0.06808593  0.06907603  0.72507631    -0.05500
H395        H  0.45626050  0.09511812  0.71011818     0.07900
C396        C  0.45128435  0.02689358  0.59329350    -0.05800
Co397      Co  0.01074026  0.00131698  0.75404091     0.74200
N398        N  0.47889982  0.05327830  0.71982942    -0.25000
Co399      Co  0.00923688  0.05312092  0.68261239     0.74100
C400        C  0.43467278  0.05234891  0.60797353     0.43600
N401        N  0.47987461  0.45634188  0.62046579     0.02000
N402        N  0.47527610  0.04787019  0.63817646     0.02100
N403        N  0.06783830  0.03405211  0.77023391    -0.45800
H404        H  0.44781805  0.47961525  0.79705098     0.07900
N405        N  0.48018822  0.03500513  0.74817550     0.02400
N406        N  0.03944915  0.05346051  0.64009512     0.02200
C407        C  0.06585200  0.07215994  0.59692455     0.43800
N408        N  0.48114174  0.43777698  0.64855867    -0.24400
C409        C  0.06033920  0.45320861  0.78265634    -0.05400
N410        N  0.45555404  0.42627512  0.73363439    -0.45500
N411        N  0.05386156  0.07775373  0.63011824    -0.45800
C412        C  0.07297571  0.42437427  0.77076287     0.43500
N413        N  0.04372168  0.03285371  0.74958786     0.02400
N414        N  0.04433265  0.43984446  0.64731748    -0.24500
N415        N  0.47814913  0.46631110  0.75429207    -0.25000
N416        N  0.04389371  0.45975682  0.62034268     0.02100
H417        H  0.07586988  0.40554779  0.66306204     0.07900
H418        H  0.05882235  0.03072932  0.56005543     0.08000
N419        N  0.04331119  0.05284277  0.72262905    -0.25000
N420        N  0.47596974  0.02583992  0.61372506    -0.24600
N421        N  0.04325999  0.44114982  0.72909043     0.02400
C422        C  0.44919248  0.06953760  0.76387758     0.43800
C423        C  0.46404113  0.41418811  0.64168649    -0.05900
N424        N  0.04009017  0.03220991  0.61482314    -0.24600
H425        H  0.44549813  0.01121786  0.57174862     0.08000
N426        N  0.46343495  0.04457168  0.77593791    -0.45800
H427        H  0.46296369  0.39421469  0.65840177     0.08000
C428        C  0.08432127  0.43548783  0.61288936     0.43700
C429        C  0.45419954  0.46411092  0.77550206    -0.05400
Co430      Co  0.51192565  0.44139544  0.69007999     0.73800
N431        N  0.46272433  0.44603355  0.59347979    -0.45600
C432        C  0.08411980  0.05641479  0.75648873     0.43900
N433        N  0.06078313  0.41835032  0.73775209    -0.45500
Co434      Co  0.01071669  0.99599437  0.61777175     0.73900
C435        C  0.05661403  0.04188925  0.58640000    -0.05900
C436        C  0.45964842  0.07540551  0.72692941    -0.05400
N437        N  0.04239746  0.46197050  0.75483317    -0.25000
N438        N  0.45078294  0.06433644  0.63566004    -0.45700
H439        H  0.07473718  0.08639082  0.70614296     0.07900
C440        C  0.06896026  0.42314981  0.64441708    -0.05800
Cl441      Cl  0.01068772  0.99882489  0.68583425    -0.48800
C442        C  0.45165745  0.41967374  0.60536386     0.43700
H443        H  0.06219274  0.46422005  0.80913207     0.07900
N444        N  0.06770348  0.45813844  0.59916361    -0.45600
C445        C  0.13093079  0.44334564  0.57864795    -0.15400
C446        C  0.11400460  0.42657386  0.60079003    -0.30500
H447        H  0.12272595  0.46463421  0.56814937     0.13700
H448        H  0.12249436  0.40562635  0.61194237     0.14200
C449        C  0.45280037  0.36938578  0.57841258    -0.15400
C450        C  0.43914519  0.39623861  0.58134207    -0.30500
H451        H  0.47452561  0.36602924  0.59084562     0.13700
H452        H  0.41862060  0.40077096  0.56658290     0.14200
C453        C  0.18945268  0.34854773  0.60603190    -0.15400
C454        C  0.20611062  0.36438661  0.58240182    -0.30500
H455        H  0.16967864  0.35833028  0.61828322     0.13700
H456        H  0.22621169  0.35463887  0.57091296     0.14200
C457        C  0.34957685  0.32129330  0.57765354    -0.15400
C458        C  0.36737353  0.30419557  0.55621270    -0.30500
H459        H  0.35720387  0.34301831  0.58698043     0.13700
H460        H  0.36031372  0.28183754  0.54851038     0.14200
C461        C  0.30940444  0.12334532  0.57784631    -0.15400
C462        C  0.32597418  0.14170040  0.59894462    -0.30500
H463        H  0.28795056  0.13078458  0.56761533     0.13700
H464        H  0.34711637  0.13408604  0.61002701     0.14200
C465        C  0.38685381  0.04570295  0.57625109    -0.15400
C466        C  0.40453226  0.06216400  0.59810286    -0.30500
H467        H  0.39460746  0.02441225  0.56525474     0.13700
H468        H  0.39658506  0.08313699  0.60983342     0.14200
C469        C  0.06003426  0.11991082  0.56382991    -0.15400
C470        C  0.07734696  0.09626977  0.57317288    -0.30500
H471        H  0.03641378  0.11911616  0.56940467     0.13700
H472        H  0.10076945  0.09602124  0.56647945     0.14200
C473        C  0.14104878  0.19265183  0.55577252    -0.15400
C474        C  0.16176937  0.17319944  0.56849222    -0.30500
H475        H  0.14541803  0.21652214  0.55690029     0.13700
H476        H  0.15723371  0.14937361  0.56828123     0.14200
C477        C  0.15843628  0.30899919  0.79308510    -0.15400
C478        C  0.13301445  0.29430440  0.79899551    -0.30500
H479        H  0.16149254  0.33152769  0.80365509     0.13700
H480        H  0.13124428  0.27104148  0.79044608     0.14200
C481        C  0.06649641  0.38161872  0.81184777    -0.15400
C482        C  0.08499424  0.39992528  0.79376137    -0.30500
H483        H  0.04348676  0.38840671  0.81542011     0.13700
H484        H  0.10774671  0.39296209  0.78880210     0.14200
C485        C  0.21274296  0.11378330  0.78545757    -0.15400
C486        C  0.19719623  0.13091572  0.76148405    -0.30500
H487        H  0.23379072  0.12129474  0.79649442     0.13700
H488        H  0.17653496  0.12299866  0.74973201     0.14200
C489        C  0.12983427  0.04530001  0.79117739    -0.15400
C490        C  0.11449380  0.06309321  0.76786230    -0.30500
H491        H  0.11971622  0.02545521  0.80269732     0.13700
H492        H  0.12468424  0.08261755  0.75567467     0.14200
C493        C  0.45388984  0.11156121  0.80686712    -0.15400
C494        C  0.43631242  0.09315392  0.78729215    -0.30500
H495        H  0.47706105  0.10557799  0.81103427     0.13700
H496        H  0.41353096  0.09964444  0.78146549     0.14200
C497        C  0.38085126  0.19321242  0.79800189    -0.15400
C498        C  0.35812026  0.17525820  0.78879540    -0.30500
H499        H  0.37950290  0.21697839  0.79177514     0.13700
H500        H  0.35854764  0.15170143  0.79611423     0.14200
C501        C  0.30281834  0.34894940  0.77809107    -0.15400
C502        C  0.31541337  0.37233003  0.76214492    -0.30500
H503        H  0.29425640  0.35099291  0.80595187     0.13700
H504        H  0.32481721  0.36988485  0.73477157     0.14200
C505        C  0.39145071  0.44269992  0.79330507    -0.15400
C506        C  0.40983524  0.42716854  0.77108750    -0.30500
H507        H  0.39858177  0.46308476  0.80688920     0.13700
H508        H  0.40265097  0.40666092  0.75777186     0.14200
C509        C  0.19229433  0.13246399  0.07827764    -0.15400
C510        C  0.20806861  0.10723691  0.07203411    -0.30500
H511        H  0.16941977  0.13443171  0.06915233     0.13700
H512        H  0.23144874  0.10647992  0.07931479     0.14200
C513        C  0.15164343  0.17048196  0.26357364    -0.15400
C514        C  0.13509580  0.18848676  0.28538724    -0.30500
H515        H  0.14249905  0.15005178  0.25215061     0.13700
H516        H  0.14420894  0.20920836  0.29608485     0.14200
C517        C  0.31318210  0.12907285  0.31590400    -0.15400
C518        C  0.33128911  0.14936669  0.30084031    -0.30500
H519        H  0.28959390  0.13404738  0.31758913     0.13700
H520        H  0.35468119  0.14405492  0.29781240     0.14200
C521        C  0.12491408  0.28955034  0.10727554    -0.15400
C522        C  0.14795777  0.27824430  0.08895321    -0.30500
H523        H  0.12792751  0.29735876  0.13541591     0.13700
H524        H  0.14544693  0.27107522  0.06047844     0.14200
C525        C  0.10446010  0.05862766  0.07651774    -0.15400
C526        C  0.12386225  0.03864610  0.06223247    -0.30500
H527        H  0.11020343  0.08214601  0.07806596     0.13700
H528        H  0.11821193  0.01504651  0.06174026     0.14200
C529        C  0.05482933  0.11582586  0.28549283    -0.15400
C530        C  0.07074016  0.09704546  0.26400374    -0.30500
H531        H  0.03356568  0.10900887  0.29633462     0.13700
H532        H  0.09165819  0.10412264  0.25236096     0.14200
C533        C  0.38147137  0.04478043  0.29233387    -0.15400
C534        C  0.40710071  0.05974516  0.28903996    -0.30500
H535        H  0.37953413  0.02259713  0.28021962     0.13700
H536        H  0.41038492  0.08080647  0.30342533     0.14200
C537        C  0.07672222  0.38881598  0.10484042    -0.15400
C538        C  0.05971618  0.37232334  0.08219153    -0.30500
H539        H  0.09583872  0.37907776  0.11876971     0.13700
H540        H  0.04072918  0.38220978  0.06810998     0.14200
C541        C  0.43946077  0.08980662  0.09997253    -0.15400
C542        C  0.45524192  0.10708730  0.07692055    -0.30500
H543        H  0.41965218  0.09858242  0.11321961     0.13700
H544        H  0.47521788  0.09840355  0.06407031     0.14200
C545        C  0.38571307  0.19092906  0.09039221    -0.15400
C546        C  0.36869697  0.17478487  0.11315453    -0.30500
H547        H  0.37811772  0.21258930  0.08042538     0.13700
H548        H  0.37657191  0.15353294  0.12411537     0.14200
C549        C  0.13449656  0.44071722  0.29787638    -0.15400
C550        C  0.10965685  0.42555918  0.28981986    -0.30500
H551        H  0.13549892  0.46449980  0.29177647     0.13700
H552        H  0.10744855  0.40222395  0.29756257     0.14200
C553        C  0.20027813  0.35257737  0.30581747    -0.15400
C554        C  0.18045241  0.33495958  0.28836707    -0.30500
H555        H  0.22300799  0.34472973  0.30904418     0.13700
H556        H  0.15799730  0.34306912  0.28373944     0.14200
C557        C  0.31036598  0.36242414  0.07530730    -0.15400
C558        C  0.32383792  0.33542518  0.07825713    -0.30500
H559        H  0.28845214  0.36561314  0.08708559     0.13700
H560        H  0.34452181  0.33080847  0.06406952     0.14200
C561        C  0.39394026  0.43179225  0.05898996    -0.15400
C562        C  0.41318833  0.41475530  0.07860186    -0.30500
H563        H  0.39977173  0.45478532  0.05281714     0.13700
H564        H  0.40702374  0.39221612  0.08638355     0.14200
C565        C  0.36875534  0.29678942  0.29008525    -0.15400
C566        C  0.35076600  0.31121248  0.26607472    -0.30500
H567        H  0.36111904  0.27736291  0.30505147     0.13700
H568        H  0.35849156  0.33060137  0.25103845     0.14200
C569        C  0.44603334  0.36695586  0.26264361    -0.15400
C570        C  0.46095648  0.38930438  0.27816703    -0.30500
H571        H  0.43581256  0.37027781  0.23579253     0.13700
H572        H  0.47051502  0.38654072  0.30549465     0.14200
C573        C  0.40625021  0.79922975  0.29538857     0.81300
N574        N  0.42303359  0.78702668  0.32260736    -0.77000
C575        C  0.45031486  0.79821434  0.33012365     0.83700
N576        N  0.46054741  0.82202861  0.31054088    -0.77000
C577        C  0.44367147  0.83373609  0.28275453     0.83800
N578        N  0.41692706  0.82213350  0.27544116    -0.78700
C579        C  0.36628026  0.91864048  0.04919467     0.81300
N580        N  0.35578690  0.89172370  0.06056795    -0.77000
C581        C  0.32766166  0.88332322  0.05207619     0.83700
N582        N  0.30992252  0.90206579  0.03229036    -0.77000
C583        C  0.31997343  0.92896475  0.02067924     0.83800
N584        N  0.34828926  0.93712525  0.02896806    -0.78700
C585        C  0.19078655  0.88982468  0.31468301     0.81300
N586        N  0.16255668  0.89877548  0.30711794    -0.77000
C587        C  0.15293340  0.92662924  0.31683848     0.83700
N588        N  0.17174126  0.94551913  0.33468531    -0.77000
C589        C  0.20007449  0.93680898  0.34258818     0.83800
N590        N  0.20948494  0.90895251  0.33225255    -0.78700
C591        C  0.44396843  0.64383408  0.06791594     0.81300
N592        N  0.41756320  0.65426617  0.08027984    -0.77000
C593        C  0.40735679  0.68166264  0.07020566     0.83700
N594        N  0.42375023  0.69884817  0.04734011    -0.77000
C595        C  0.45042078  0.68869464  0.03498603     0.83800
N596        N  0.46033990  0.66102708  0.04500029    -0.78700
C597        C  0.07685067  0.93067023  0.27127256     0.43500
N598        N  0.05927456  0.95971183  0.22939982     0.02400
C599        C  0.42774369  0.53938149  0.22721161    -0.05500
H600        H  0.43522246  0.91458589  0.21039206     0.07900
C601        C  0.46828039  0.93711054  0.08807975    -0.05800
Co602      Co  0.00344414  0.99133921  0.25121542     0.74200
N603        N  0.46098894  0.95341767  0.22516130    -0.25000
Co604      Co  0.45579513  0.98582943  0.18279484     0.74100
C605        C  0.44033662  0.92422575  0.10098029     0.43600
N606        N  0.04025804  0.95455044  0.12109700     0.02000
N607        N  0.45821398  0.95330534  0.14267095     0.02100
N608        N  0.46113170  0.54371001  0.27328888    -0.45800
H609        H  0.03690066  0.94034224  0.30913609     0.07900
N610        N  0.97177010  0.95782290  0.24671017     0.02400
N611        N  0.45484149  0.52367856  0.13801691     0.02200
C612        C  0.44805096  0.56461800  0.10813775     0.43800
N613        N  0.05991844  0.95527498  0.14825841    -0.24400
C614        C  0.03666121  0.55751897  0.26532266    -0.05400
N615        N  0.08243837  0.94296174  0.23835967    -0.45500
N616        N  0.43767592  0.54793983  0.13631333    -0.45800
C617        C  0.06041921  0.57503645  0.24952689     0.43500
N618        N  0.47133886  0.52626701  0.24638361     0.02400
N619        N  0.06236865  0.52704463  0.13993537    -0.24500
N620        N  0.03857559  0.96017521  0.25484622    -0.25000
N621        N  0.04408030  0.52430459  0.11182726     0.02100
H622        H  0.10376063  0.54948074  0.14762151     0.07900
H623        H  0.48835071  0.55537138  0.07091145     0.08000
N624        N  0.45181394  0.52294971  0.21974570    -0.25000
N625        N  0.47780801  0.95468211  0.11597801    -0.24600
N626        N  0.05837313  0.53300809  0.22115914     0.02400
C627        C  0.46544747  0.91367614  0.26210220     0.43800
C628        C  0.07623203  0.93008037  0.14703747    -0.05900
N629        N  0.47595203  0.52405487  0.11278069    -0.24600
H630        H  0.97617040  0.93713297  0.05947680     0.08000
N631        N  0.96905884  0.93402718  0.26802920    -0.45800
H632        H  0.09347141  0.92370212  0.16632743     0.08000
C633        C  0.07817885  0.55429959  0.09354583     0.43700
C634        C  0.04777213  0.94243412  0.28278024    -0.05400
Co635      Co  0.05999654  0.99014228  0.18715180     0.73800
N636        N  0.04181992  0.92969351  0.10128740    -0.45600
C637        C  0.43393175  0.55336072  0.26248073     0.43900
N638        N  0.07305365  0.55854939  0.22239862    -0.45500
Co639      Co  0.00941211  0.98889436  0.11518710     0.73900
C640        C  0.47329313  0.54875554  0.09243138    -0.05900
C641        C  0.45032682  0.92556405  0.22913456    -0.05400
N642        N  0.03705794  0.53201510  0.24601495    -0.25000
N643        N  0.43556863  0.93587577  0.13462356    -0.45700
H644        H  0.40712524  0.53876310  0.21194343     0.07900
C645        C  0.08397167  0.54588862  0.13134980    -0.05800
Cl646      Cl  0.00638518  0.99042840  0.18317859    -0.48800
C647        C  0.06402972  0.91332410  0.11616432     0.43700
H648        H  0.02130786  0.56305654  0.28715244     0.07900
N649        N  0.05353448  0.53942066  0.08263424    -0.45600
C650        C  0.10450254  0.80027769  0.06633868     0.81300
N651        N  0.08782597  0.78375510  0.04282404    -0.77000
C652        C  0.06060184  0.79396355  0.03222954     0.83700
N653        N  0.05035010  0.82088888  0.04458139    -0.77000
C654        C  0.06704204  0.83737682  0.06800486     0.83800
N655        N  0.09395121  0.82693657  0.07862713    -0.78700
C656        C  0.36023698  0.55526914  0.31249723     0.81300
N657        N  0.34244340  0.53616403  0.33115783    -0.77000
C658        C  0.31519789  0.54539240  0.34285932     0.83700
N659        N  0.30581748  0.57383461  0.33548095    -0.77000
C660        C  0.32341549  0.59294581  0.31657743     0.83800
N661        N  0.35059167  0.58353148  0.30533131    -0.78700
C662        C  0.06689753  0.65018987  0.29946469     0.81300
N663        N  0.05120725  0.66728812  0.32360136    -0.77000
C664        C  0.06310325  0.69283305  0.33754795     0.83700
N665        N  0.09105806  0.70087589  0.32791214    -0.77000
C666        C  0.10669685  0.68368167  0.30373310     0.83800
N667        N  0.09445273  0.65854562  0.28986524    -0.78700
C668        C  0.19187840  0.58952852  0.05074403     0.81300
N669        N  0.21028742  0.56986380  0.03305947    -0.77000
C670        C  0.20021003  0.54266985  0.02169346     0.83700
N671        N  0.17147947  0.53527788  0.02842570    -0.77000
C672        C  0.15291574  0.55478846  0.04602345     0.83800
N673        N  0.16328204  0.58187498  0.05695973    -0.78700
C674        C  0.32782203  0.79565571  0.25771039     0.43500
N675        N  0.28751941  0.79064884  0.22761640     0.02400
C676        C  0.19737080  0.66910613  0.22440574    -0.05500
H677        H  0.30762000  0.64061267  0.21416045     0.07900
C678        C  0.31339186  0.70940407  0.09769991    -0.05800
Co679      Co  0.25474777  0.73717954  0.25250203     0.74200
N680        N  0.28621765  0.68319806  0.22334842    -0.25000
Co681      Co  0.25552776  0.68503585  0.18147287     0.74100
C682        C  0.33012374  0.68424810  0.11277542     0.43600
N683        N  0.28522667  0.77699578  0.11841917     0.02000
N684        N  0.28919225  0.68833023  0.14194155     0.02100
N685        N  0.19813033  0.70439636  0.26949726    -0.45800
H686        H  0.31858141  0.75446139  0.29378653     0.07900
N687        N  0.28598067  0.70206794  0.25124718     0.02400
N688        N  0.22486994  0.68513034  0.13924178     0.02200
C689        C  0.19742831  0.66663634  0.09659141     0.43800
N690        N  0.28499565  0.79568335  0.14648703    -0.24400
C691        C  0.20665260  0.78233716  0.28313234    -0.05400
N692        N  0.31146999  0.80734033  0.22999779    -0.45500
N693        N  0.20955165  0.66122148  0.12981983    -0.45800
C694        C  0.19540752  0.81183230  0.27150481     0.43500
N695        N  0.22180281  0.70570871  0.24833452     0.02400
N696        N  0.22070625  0.79332044  0.14744406    -0.24500
N697        N  0.28764549  0.76870657  0.25198342    -0.25000
N698        N  0.22060502  0.77324249  0.12052648     0.02100
H699        H  0.18947438  0.82779969  0.16355557     0.07900
H700        H  0.20538670  0.70725908  0.05897804     0.08000
N701        N  0.22190409  0.68557516  0.22146538    -0.25000
N702        N  0.28858265  0.71029974  0.11756435    -0.24600
N703        N  0.22330575  0.79329690  0.22924723     0.02400
C704        C  0.31668405  0.66719265  0.26698724     0.43800
C705        C  0.30437494  0.81751033  0.14056489    -0.05900
N706        N  0.22462634  0.70601224  0.11365008    -0.24600
H707        H  0.31927498  0.72519335  0.07649655     0.08000
N708        N  0.30330716  0.69276416  0.27871217    -0.45800
H709        H  0.30718412  0.83716439  0.15765988     0.08000
C710        C  0.18028023  0.79774796  0.11336090     0.43700
C711        C  0.31219597  0.77010949  0.27244375    -0.05400
Co712      Co  0.25410617  0.79370423  0.18765730     0.73800
N713        N  0.30362413  0.78575979  0.09210303    -0.45600
C714        C  0.18184774  0.68179810  0.25609557     0.43900
N715        N  0.20723103  0.81704510  0.23825523    -0.45500
Co716      Co  0.25461346  0.74173126  0.11655697     0.73900
C717        C  0.20756411  0.69640607  0.08546777    -0.05900
C718        C  0.30502043  0.66070555  0.23059468    -0.05400
N719        N  0.22383794  0.77265326  0.25509328    -0.25000
N720        N  0.31389965  0.67213008  0.14004125    -0.45700
H721        H  0.19065807  0.65144495  0.20581550     0.07900
C722        C  0.19608461  0.81011575  0.14481286    -0.05800
Cl723      Cl  0.25462994  0.73939626  0.18452224    -0.48800
C724        C  0.31714219  0.81072625  0.10491990     0.45700
H725        H  0.20498230  0.77171751  0.30978079     0.07900
N726        N  0.19658695  0.77492973  0.09956296    -0.45600
N727        N  0.22422305  0.96110849  0.43729588    -0.35500
N728        N  0.25795421  0.99283443  0.49497809    -0.56100
N729        N  0.29032340  0.52477024  0.43758533    -0.35500
N730        N  0.25661229  0.99205364  0.37989659    -0.56100
C731        C  0.21566600  0.94590141  0.46758644     0.28100
C732        C  0.21462598  0.94573227  0.40736868     0.28100
C733        C  0.30476253  0.53503306  0.46785669     0.28000
C734        C  0.30637557  0.53259914  0.40776317     0.28000
C735        C  0.23887281  0.97795681  0.51665557     0.36700
C736        C  0.27242349  0.51338338  0.51668770     0.36700
C737        C  0.23697067  0.97747890  0.35804084     0.36700
C738        C  0.27723231  0.50632818  0.35839715     0.36700
C739        C  0.20009584  0.92070463  0.45679518    -0.20800
C740        C  0.19942457  0.92059036  0.41900220    -0.20800
C741        C  0.33001732  0.55004180  0.45697734    -0.20800
C742        C  0.33103831  0.54851799  0.41926332    -0.20800
C743        C  0.24160039  0.98775190  0.55282281    -0.21900
C744        C  0.26198918  0.51155454  0.55246747    -0.21900
C745        C  0.23938490  0.98777280  0.32219730    -0.21900
C746        C  0.26098392  0.00951014  0.32246393    -0.21900
C747        C  0.22002447  0.95470165  0.50477149    -0.17200
C748        C  0.21785221  0.95422875  0.36988954    -0.17200
C749        C  0.29887815  0.52726530  0.37030742    -0.17200
C750        C  0.29544619  0.53237772  0.50499361    -0.17200
H751        H  0.18990007  0.90418479  0.47429671     0.15700
H752        H  0.18857740  0.90391931  0.40215073     0.15700
H753        H  0.34605133  0.56123956  0.47429465     0.15700
H754        H  0.34805606  0.55827344  0.40229531     0.15700
H755        H  0.22969944  0.97983539  0.57666899     0.14000
H756        H  0.26887493  0.52466805  0.57606073     0.14000
H757        H  0.22699566  0.98030698  0.29834769     0.14000
H758        H  0.27540500  0.51439979  0.29823865     0.14000
H759        H  0.23464761  0.98156372  0.43725983     0.27200
H760        H  0.26996828  0.51438775  0.43703140     0.27200
N761        N  0.47338195  0.71100693  0.93958543    -0.35500
N762        N  0.00538108  0.74026764  0.99359011    -0.56100
N763        N  0.03669206  0.77388365  0.93642748    -0.35500
N764        N  0.00235068  0.74478831  0.87886430    -0.56100
C765        C  0.45816734  0.70208273  0.96968539     0.28100
C766        C  0.45800074  0.70208514  0.90950164     0.28100
C767        C  0.04577948  0.78832598  0.96722551     0.28000
C768        C  0.04389049  0.79115604  0.90720752     0.28000
C769        C  0.48968997  0.72506320  0.01890950     0.36700
C770        C  0.02553701  0.75396055  0.01519021     0.36700
C771        C  0.48848875  0.72617470  0.85997437     0.36700
C772        C  0.02093493  0.76048245  0.85707127     0.36700
C773        C  0.43298032  0.68695660  0.95853040    -0.20800
C774        C  0.43287588  0.68691672  0.92074896    -0.20800
C775        C  0.05926329  0.81489777  0.95742919    -0.20800
C776        C  0.05807570  0.81668955  0.91977956    -0.20800
C777        C  0.49910392  0.72809370  0.05511281    -0.21900
C778        C  0.02398507  0.74299096  0.05085091    -0.21900
C779        C  0.49690713  0.73022000  0.82363606    -0.21900
C780        C  0.01772545  0.75115444  0.82083544    -0.21900
C781        C  0.46676323  0.70594563  0.00699354    -0.17200
C782        C  0.46628372  0.70602724  0.87212255    -0.17200
C783        C  0.03981056  0.78383189  0.86944772    -0.17200
C784        C  0.04372016  0.77773168  0.00387073    -0.17200
H785        H  0.41638259  0.67677132  0.97576019     0.15700
H786        H  0.41610124  0.67669695  0.90359245     0.15700
H787        H  0.06933517  0.83128809  0.97541874     0.15700
H788        H  0.06713544  0.83473796  0.90370052     0.15700
H789        H  0.49092404  0.71643535  0.07906155     0.14000
H790        H  0.03681892  0.74996919  0.07456521     0.14000
H791        H  0.48842072  0.71867843  0.79961046     0.14000
H792        H  0.02910947  0.75970867  0.79693928     0.14000
H793        H  0.49379103  0.72121108  0.93944337     0.27200
H794        H  0.02772640  0.75268579  0.93545425     0.27200
N795        N  0.00665604  0.74608641  0.37744975    -0.35500
N796        N  0.04143469  0.71513767  0.43365595    -0.56100
N797        N  0.00541464  0.74357242  0.49211727    -0.35500
N798        N  0.47326304  0.77873350  0.42742262    -0.56100
C799        C  0.02736150  0.73291641  0.35578036     0.28100
C800        C  0.49288268  0.76630155  0.34910751     0.28100
C801        C  0.02651731  0.72979932  0.51298923     0.28000
C802        C  0.48942022  0.76571250  0.50655172     0.28000
C803        C  0.05171843  0.70063689  0.40341240     0.36700
C804        C  0.05170669  0.69972305  0.46311793     0.36700
C805        C  0.45876286  0.78838324  0.39682184     0.36700
C806        C  0.45706048  0.78786271  0.45678782     0.36700
C807        C  0.02537629  0.74466868  0.32052560    -0.20800
C808        C  0.50317036  0.76340260  0.31322914    -0.20800
C809        C  0.02418798  0.74020927  0.54891659    -0.20800
C810        C  0.50074294  0.76513047  0.54216505    -0.20800
C811        C  0.06889586  0.67617048  0.41370773    -0.21900
C812        C  0.06891913  0.67557565  0.45136417    -0.21900
C813        C  0.43340998  0.80409131  0.40691625    -0.21900
C814        C  0.43232774  0.80376976  0.44466797    -0.21900
C815        C  0.04698363  0.70961806  0.36651786    -0.17200
C816        C  0.46838152  0.78438004  0.35985075    -0.17200
C817        C  0.46508714  0.78401885  0.49443115    -0.17200
C818        C  0.04721261  0.70759035  0.50058869    -0.17200
H819        H  0.03857604  0.73853157  0.29678825     0.15700
H820        H  0.49489421  0.77461482  0.28882699     0.15700
H821        H  0.03760259  0.73346593  0.57230408     0.15700
H822        H  0.49335394  0.77845688  0.56538955     0.15700
H823        H  0.08038343  0.66040816  0.39596906     0.14000
H824        H  0.08045760  0.65914800  0.46810966     0.14000
H825        H  0.41742813  0.81502787  0.38904033     0.14000
H826        H  0.41534561  0.81444549  0.46122342     0.14000
H827        H  0.00188768  0.74050289  0.40434378     0.27200
H828        H  0.00106889  0.73906476  0.46471722     0.27200
N829        N  0.25858258  0.98356061  0.87051364    -0.35500
N830        N  0.29482568  0.95308802  0.92636832    -0.56100
N831        N  0.25870505  0.98046072  0.98509843    -0.35500
N832        N  0.22406259  0.51834360  0.92712449    -0.56100
C833        C  0.27976025  0.97117396  0.84886438     0.28100
C834        C  0.24184030  0.50519110  0.84845826     0.28100
C835        C  0.27973302  0.96665563  0.00603366     0.28000
C836        C  0.24165756  0.50592166  0.00595798     0.28000
C837        C  0.30573574  0.93939946  0.89590549     0.36700
C838        C  0.30719170  0.93906791  0.95571974     0.36700
C839        C  0.20991937  0.52924244  0.89697786     0.36700
C840        C  0.20934996  0.52916074  0.95680089     0.36700
C841        C  0.27859024  0.98430311  0.81428168    -0.20800
C842        C  0.25230496  0.50309399  0.81264461    -0.20800
C843        C  0.27566673  0.97506002  0.04251292    -0.20800
C844        C  0.25297776  0.50476082  0.04151658    -0.20800
C845        C  0.32539857  0.91680805  0.90591724    -0.21900
C846        C  0.32641238  0.91664929  0.94365425    -0.21900
C847        C  0.18633713  0.54737086  0.90757640    -0.21900
C848        C  0.18594794  0.54732403  0.94522624    -0.21900
C849        C  0.29979048  0.94801867  0.85909033    -0.17200
C850        C  0.21865824  0.52467982  0.85992880    -0.17200
C851        C  0.21760566  0.52477962  0.99424443    -0.17200
C852        C  0.30198273  0.94615480  0.99334562    -0.17200
H853        H  0.29239518  0.97919665  0.79071936     0.15700
H854        H  0.24485832  0.51573967  0.78889263     0.15700
H855        H  0.28856125  0.96777629  0.06610636     0.15700
H856        H  0.24569327  0.51781428  0.06502113     0.15700
H857        H  0.33796794  0.90213023  0.88790833     0.14000
H858        H  0.33980489  0.90160041  0.96025936     0.14000
H859        H  0.17119071  0.55984088  0.89008632     0.14000
H860        H  0.17045403  0.55993438  0.96198834     0.14000
H861        H  0.25336052  0.97690111  0.89693506     0.27200
H862        H  0.25565634  0.97749316  0.95717769     0.27200
C863        C  0.32633651  0.89771173  0.78407987     0.81300
N864        N  0.35263032  0.91006727  0.77669499    -0.77000
C865        C  0.36239970  0.93394718  0.79583947     0.83700
N866        N  0.34514488  0.94629953  0.82240701    -0.77000
C867        C  0.31822721  0.93437810  0.82982994     0.83800
N868        N  0.30891064  0.90965074  0.81107148    -0.78700
C869        C  0.40431165  0.67879562  0.81421974     0.81300
N870        N  0.42277670  0.69770461  0.83240949    -0.77000
C871        C  0.44959565  0.68777533  0.84490354     0.83700
N872        N  0.45785187  0.65874738  0.83890115    -0.77000
C873        C  0.43966226  0.63985082  0.82021810     0.83800
N874        N  0.41291516  0.65003165  0.80815509    -0.78700
C875        C  0.19765234  0.58613627  0.79619325     0.81300
N876        N  0.21374713  0.56867670  0.81962208    -0.77000
C877        C  0.20260187  0.54221158  0.83154216     0.83700
N878        N  0.17506293  0.53367370  0.82069702    -0.77000
C879        C  0.15903281  0.55122827  0.79739784     0.83800
N880        N  0.17045329  0.57727573  0.78542069    -0.78700
C881        C  0.07006300  0.84854968  0.81770531     0.81300
N882        N  0.05059940  0.83046974  0.83543869    -0.77000
C883        C  0.05770904  0.80131156  0.84263454     0.83700
N884        N  0.08435951  0.79023442  0.83133613    -0.77000
C885        C  0.10396066  0.80803611  0.81353166     0.83800
N886        N  0.09677279  0.83719768  0.80694031    -0.78700
C887        C  0.07531085  0.64408419  0.55608259     0.81300
N888        N  0.10435031  0.65132415  0.55998684    -0.77000
C889        C  0.11434329  0.67820981  0.54780561     0.83700
N890        N  0.09505503  0.69765100  0.53126147    -0.77000
C891        C  0.06589338  0.69067939  0.52739830     0.83800
N892        N  0.05620935  0.66389645  0.54002151    -0.78700
C893        C  0.31938802  0.59304538  0.56846520     0.81300
N894        N  0.34643997  0.58265272  0.57898594    -0.77000
C895        C  0.35666032  0.55573605  0.56684330     0.83700
N896        N  0.33963283  0.53912195  0.54379473    -0.77000
C897        C  0.31237855  0.54919911  0.53323859     0.83800
N898        N  0.30241366  0.57631819  0.54535522    -0.78700
C899        C  0.18082408  0.79685792  0.77089377     0.43500
N900        N  0.19990118  0.76926474  0.72851235     0.02400
C901        C  0.33641682  0.69663738  0.72948266    -0.05500
H902        H  0.33287564  0.81638366  0.71154987     0.07900
C903        C  0.29877071  0.79552334  0.58782250    -0.05800
Co904      Co  0.25671846  0.73980371  0.75127605     0.74200
N905        N  0.30488748  0.77898576  0.72486314    -0.25000
Co906      Co  0.30954509  0.74628478  0.68265023     0.74100
C907        C  0.32702909  0.80767875  0.60109635     0.43600
N908        N  0.22245873  0.77813134  0.62050343     0.02000
N909        N  0.30864209  0.77862409  0.64217261     0.02100
N910        N  0.30335129  0.69294575  0.77563005    -0.45800
H911        H  0.22079180  0.78851043  0.80943330     0.07900
N912        N  0.28517985  0.77519389  0.75135532     0.02400
N913        N  0.30941835  0.71300575  0.64096260     0.02200
C914        C  0.31547288  0.67182995  0.61109417     0.43800
N915        N  0.20217732  0.77628272  0.64671911    -0.24400
C916        C  0.22729644  0.67927474  0.76607374    -0.05400
N917        N  0.17596999  0.78496907  0.73734146    -0.45500
N918        N  0.32623600  0.68848740  0.63925373    -0.45800
C919        C  0.20317031  0.66250068  0.74971778     0.43500
N920        N  0.29337801  0.71089601  0.74909971     0.02400
N921        N  0.20297044  0.71110551  0.64066056    -0.24500
N922        N  0.22007574  0.76895636  0.75478944    -0.25000
N923        N  0.22168978  0.71324721  0.61313790     0.02100
H924        H  0.16217368  0.68756556  0.64805239     0.07900
H925        H  0.27518405  0.68164806  0.57371024     0.08000
N926        N  0.31276031  0.71382840  0.72244229    -0.25000
N927        N  0.28903992  0.77779964  0.61522951    -0.24600
N928        N  0.20652596  0.70442420  0.72170834     0.02400
C929        C  0.30186752  0.81865859  0.76224918     0.43800
C930        C  0.18536732  0.80123292  0.64566772    -0.05900
N931        N  0.28814312  0.71296804  0.61572913    -0.24600
H932        H  0.28900676  0.79712193  0.56062720     0.08000
N933        N  0.28276903  0.79816462  0.77405096    -0.45800
H934        H  0.16763811  0.80688660  0.66447206     0.08000
C935        C  0.18877417  0.68178025  0.59498836     0.43700
C936        C  0.21012232  0.78612189  0.78286484    -0.05400
Co937      Co  0.20232239  0.74024639  0.68431849     0.73800
N938        N  0.22083768  0.80339555  0.60169852    -0.45600
C939        C  0.33017826  0.68257703  0.76451479     0.43900
N940        N  0.19113129  0.67930998  0.72243978    -0.45500
Co941      Co  0.25523878  0.74563287  0.61519658     0.73900
C942        C  0.29037160  0.68810888  0.59534896    -0.05900
C943        C  0.31687141  0.80619480  0.72957994    -0.05400
N944        N  0.22776687  0.70467246  0.74688632    -0.25000
N945        N  0.33168899  0.79556451  0.63453511    -0.45700
H946        H  0.35685895  0.69665360  0.71402014     0.07900
C947        C  0.18189859  0.69157336  0.63203927    -0.05800
Cl948      Cl  0.25596975  0.74306537  0.68330918    -0.48800
C949        C  0.19796599  0.81901732  0.61600776     0.43700
H950        H  0.24239721  0.67334314  0.78812855     0.07900
N951        N  0.21329235  0.69680346  0.58435249    -0.45600
C952        C  0.40229230  0.81242327  0.55202508     0.81300
N953        N  0.41238533  0.84003062  0.56161313    -0.77000
C954        C  0.44001295  0.84882740  0.55155741     0.83700
N955        N  0.45755125  0.82981138  0.53170244    -0.77000
C956        C  0.44779649  0.80221132  0.52175918     0.83800
N957        N  0.42011901  0.79363537  0.53206994    -0.78700
C958        C  0.15982298  0.93368511  0.56800193     0.81300
N959        N  0.17634741  0.94937083  0.54382076    -0.77000
C960        C  0.20316952  0.93852352  0.53298484     0.83700
N961        N  0.21320668  0.91165700  0.54580265    -0.77000
C962        C  0.19660902  0.89591696  0.56996590     0.83800
N963        N  0.17009445  0.90710001  0.58086126    -0.78700
C964        C  0.43949035  0.94037980  0.75599679     0.43500
N965        N  0.47868082  0.94639062  0.72459530     0.02400
C966        C  0.06613190  0.56502611  0.72128788    -0.05500
H967        H  0.45426522  0.59289146  0.71384258     0.07900
C968        C  0.45017892  0.52421103  0.59742400    -0.05800
Co969      Co  0.01071713  0.49657138  0.75237626     0.74200
N970        N  0.47734785  0.55134320  0.72396572    -0.25000
Co971      Co  0.00726461  0.54766745  0.68062223     0.74100
C972        C  0.43353975  0.54984804  0.61169937     0.43600
N973        N  0.48017045  0.95899710  0.61478506     0.02000
N974        N  0.47396610  0.54536416  0.64237977     0.02100
N975        N  0.06724613  0.53033495  0.76682189    -0.45800
H976        H  0.44880611  0.98167353  0.79229451     0.07900
N977        N  0.47847785  0.53306424  0.75233101     0.02400
N978        N  0.03755932  0.54783291  0.63843279     0.02200
C979        C  0.06638072  0.56579506  0.59730495     0.43800
N980        N  0.48054222  0.94071359  0.64314628    -0.24400
C981        C  0.05802704  0.95545273  0.78572960    -0.05400
N982        N  0.45530436  0.92905933  0.72771086    -0.45500
N983        N  0.05332271  0.57151525  0.62980129    -0.45800
C984        C  0.06953387  0.92607722  0.77371824     0.43500
N985        N  0.04276027  0.52869826  0.74697876     0.02400
N986        N  0.04494450  0.94495219  0.64963452    -0.24500
N987        N  0.47874242  0.96834308  0.74911282    -0.25000
N988        N  0.04516960  0.96478325  0.62257364     0.02100
H989        H  0.07554236  0.91005207  0.66618172     0.07900
H990        H  0.05976104  0.52455238  0.55978758     0.08000
N991        N  0.04156824  0.54844699  0.71986676    -0.25000
N992        N  0.47474415  0.52317588  0.61816358    -0.24600
N993        N  0.04224618  0.94522027  0.73104677     0.02400
C994        C  0.44680487  0.56713298  0.76742387     0.43800
C995        C  0.46188760  0.91822622  0.63693548    -0.05900
N996        N  0.03843051  0.52669994  0.61308999    -0.24600
H997        H  0.44454985  0.50852413  0.57582175     0.08000
N998        N  0.46120085  0.54234764  0.77973304    -0.45800
H999        H  0.45963137  0.89861405  0.65407886     0.08000
C1000       C  0.08509344  0.93955227  0.61597073     0.43700
C1001       C  0.45482897  0.96635815  0.77038619    -0.05400
Co1002     Co  0.51161866  0.94323858  0.68449670     0.73800
N1003       N  0.46241409  0.94927272  0.58801342    -0.45600
C1004       C  0.08290891  0.55277532  0.75223256     0.43900
N1005       N  0.05817329  0.92135278  0.73999620    -0.45500
Co1006     Co  0.00903334  0.49049943  0.61627181     0.73900
C1007       C  0.05646372  0.53590555  0.58583307    -0.05900
C1008       C  0.45777284  0.57325447  0.73075281    -0.05400
N1009       N  0.04145625  0.96564748  0.75723767    -0.25000
N1010       N  0.44953924  0.56188721  0.63945496    -0.45700
H1011       H  0.07223329  0.58221579  0.70190341     0.07900
C1012       C  0.06928317  0.92780188  0.64740743    -0.05800
Cl1013     Cl  0.00967248  0.49347582  0.68426553    -0.48800
C1014       C  0.44951617  0.92399072  0.60071264     0.43700
H1015       H  0.05930553  0.96575028  0.81268843     0.07900
N1016       N  0.06909405  0.96246891  0.60173089    -0.45600
C1017       C  0.13035964  0.94467943  0.57911269    -0.15400
C1018       C  0.11436408  0.92955388  0.60379869    -0.30500
H1019       H  0.12175000  0.96525292  0.56705058     0.13700
H1020       H  0.12320361  0.90934782  0.61651319     0.14200
C1021       C  0.45234962  0.87766808  0.56465958    -0.15400
C1022       C  0.43569361  0.90043341  0.57791128    -0.30500
H1023       H  0.47634119  0.87951894  0.56557884     0.13700
H1024       H  0.41169277  0.89910447  0.57747159     0.14200
C1025       C  0.18957063  0.84963044  0.60538043    -0.15400
C1026       C  0.20619539  0.86593223  0.58229532    -0.30500
H1027       H  0.16925883  0.85884088  0.61691438     0.13700
H1028       H  0.22678058  0.85676021  0.57143859     0.14200
C1029       C  0.35178766  0.81990820  0.57920280    -0.15400
C1030       C  0.37314767  0.80166310  0.56554293    -0.30500
H1031       H  0.35461777  0.84401152  0.57884414     0.13700
H1032       H  0.36976657  0.77760703  0.56613152     0.14200
C1033       C  0.30921536  0.62317533  0.57983192    -0.15400
C1034       C  0.32529640  0.64107330  0.60204684    -0.30500
H1035       H  0.28814598  0.63100078  0.56881931     0.13700
H1036       H  0.34600156  0.63307345  0.61397810     0.14200
C1037       C  0.38655503  0.54505622  0.57725588    -0.15400
C1038       C  0.40373851  0.56031143  0.60097863    -0.30500
H1039       H  0.39446415  0.52419736  0.56521885     0.13700
H1040       H  0.39561226  0.58086437  0.61360947     0.14200
C1041       C  0.06352053  0.61648455  0.57257750    -0.15400
C1042       C  0.07833002  0.59014765  0.57431360    -0.30500
H1043       H  0.04147582  0.61810730  0.58443171     0.13700
H1044       H  0.09934442  0.58701587  0.56030045     0.14200
C1045       C  0.14502537  0.68793371  0.55602933    -0.15400
C1046       C  0.16575428  0.66948079  0.57050614    -0.30500
H1047       H  0.14941133  0.71180420  0.55485570     0.13700
H1048       H  0.16114806  0.64577142  0.57310793     0.14200
C1049       C  0.15671626  0.80987615  0.79348406    -0.15400
C1050       C  0.13137024  0.79467508  0.79808096    -0.30500
H1051       H  0.15907185  0.83237301  0.80444385     0.13700
H1052       H  0.13034642  0.77149393  0.78899048     0.14200
C1053       C  0.06087134  0.87943935  0.80727004    -0.15400
C1054       C  0.08006384  0.90060295  0.79636422    -0.30500
H1055       H  0.03723252  0.88417650  0.80560034     0.13700
H1056       H  0.10375539  0.89628872  0.79766685     0.14200
C1057       C  0.20866782  0.61537767  0.78416552    -0.15400
C1058       C  0.19340474  0.63243149  0.75991638    -0.30500
H1059       H  0.22932805  0.62316226  0.79599192     0.13700
H1060       H  0.17312216  0.62434236  0.74732807     0.14200
C1061       C  0.12883494  0.54306223  0.78650468    -0.15400
C1062       C  0.11316508  0.56018404  0.76287533    -0.30500
H1063       H  0.11928035  0.52298881  0.79819355     0.13700
H1064       H  0.12280528  0.57988136  0.75040423     0.14200
C1065       C  0.45011896  0.60939554  0.81005936    -0.15400
C1066       C  0.43308834  0.59041027  0.79061684    -0.30500
H1067       H  0.47338504  0.60394638  0.81448929     0.13700
H1068       H  0.41021978  0.59633799  0.78444543     0.14200
C1069       C  0.37610152  0.69002420  0.79868962    -0.15400
C1070       C  0.35368961  0.67175830  0.78940903    -0.30500
H1071       H  0.37439641  0.71377944  0.79246442     0.13700
H1072       H  0.35443729  0.64813615  0.79637731     0.14200
C1073       C  0.30370360  0.84837597  0.77932113    -0.15400
C1074       C  0.31929470  0.87014152  0.76413674    -0.30500
H1075       H  0.29284611  0.85196432  0.80566530     0.13700
H1076       H  0.33073898  0.86604622  0.73829677     0.14200
C1077       C  0.39217867  0.94509313  0.78861070    -0.15400
C1078       C  0.41014100  0.92998983  0.76555751    -0.30500
H1079       H  0.39933634  0.96546366  0.80221388     0.13700
H1080       H  0.40291425  0.90959757  0.75200877     0.14200
C1081       C  0.18638433  0.64216228  0.07287629    -0.15400
C1082       C  0.20358280  0.61789129  0.06598417    -0.30500
H1083       H  0.16341115  0.64285674  0.06391288     0.13700
H1084       H  0.22688123  0.61830550  0.07364202     0.14200
C1085       C  0.15205452  0.67440038  0.26851325    -0.15400
C1086       C  0.13706826  0.69145415  0.29296368    -0.30500
H1087       H  0.14195711  0.65480846  0.25614354     0.13700
H1088       H  0.14705694  0.71135205  0.30475629     0.14200
C1089       C  0.31186982  0.62262135  0.30513246    -0.15400
C1090       C  0.32942809  0.64386704  0.29097155    -0.30500
H1091       H  0.28797833  0.62594874  0.30477488     0.13700
H1092       H  0.35330213  0.64067512  0.29052951     0.14200
C1093       C  0.13446100  0.79029216  0.07731533    -0.15400
C1094       C  0.15047223  0.80649166  0.10132972    -0.30500
H1095       H  0.14343470  0.76968751  0.06569593     0.13700
H1096       H  0.14124516  0.82670484  0.11363770     0.14200
C1097       C  0.10210407  0.56494408  0.06944352    -0.15400
C1098       C  0.12241749  0.54554620  0.05584539    -0.30500
H1099       H  0.10718034  0.58862848  0.07088250     0.13700
H1100       H  0.11761785  0.52174631  0.05566146     0.14200
C1101       C  0.05510338  0.62168033  0.28554785    -0.15400
C1102       C  0.07023520  0.60490954  0.26092810    -0.30500
H1103       H  0.03419789  0.61399244  0.29654657     0.13700
H1104       H  0.09077020  0.61293916  0.24918867     0.14200
C1105       C  0.38870991  0.54464519  0.29723048    -0.15400
C1106       C  0.41044667  0.56351960  0.28765725    -0.30500
H1107       H  0.39104546  0.52089000  0.29115053     0.13700
H1108       H  0.40900067  0.58717812  0.29444439     0.14200
C1109       C  0.07280584  0.88311835  0.10460543    -0.15400
C1110       C  0.05694388  0.86720276  0.08017811    -0.30500
H1111       H  0.09278798  0.87374309  0.11695186     0.13700
H1112       H  0.03654236  0.87635881  0.06864092     0.14200
C1113       C  0.43822078  0.59536019  0.09962492    -0.15400
C1114       C  0.45397518  0.61332541  0.07741222    -0.30500
H1115       H  0.41790525  0.60342217  0.11234403     0.13700
H1116       H  0.47463079  0.60546713  0.06543509     0.14200
C1117       C  0.37770050  0.69175202  0.08168032    -0.15400
C1118       C  0.36044578  0.67495884  0.10340996    -0.30500
H1119       H  0.36969752  0.71309601  0.07120518     0.13700
H1120       H  0.36864364  0.65394706  0.11470987     0.14200
C1121       C  0.12323649  0.93747335  0.30508150    -0.15400
C1122       C  0.10127800  0.91905328  0.29446152    -0.30500
H1123       H  0.12009484  0.96152427  0.30224214     0.13700
H1124       H  0.10378716  0.89496450  0.29724228     0.14200
C1125       C  0.20205330  0.86067198  0.30085967    -0.15400
C1126       C  0.18465027  0.83674293  0.29490747    -0.30500
H1127       H  0.22531359  0.85936421  0.29329621     0.13700
H1128       H  0.16166701  0.83695296  0.30362035     0.14200
C1129       C  0.31525281  0.85499754  0.06596632    -0.15400
C1130       C  0.33168903  0.83347681  0.08217018    -0.30500
H1131       H  0.29131014  0.85258714  0.06495477     0.13700
H1132       H  0.35557269  0.83562105  0.08426825     0.14200
C1133       C  0.39623605  0.92889656  0.06088253    -0.15400
C1134       C  0.41571526  0.91124013  0.07928866    -0.30500
H1135       H  0.40145054  0.95237293  0.05694461     0.13700
H1136       H  0.41030390  0.88802537  0.08459102     0.14200
C1137       C  0.37588958  0.78925944  0.28873830    -0.15400
C1138       C  0.35795090  0.80487421  0.26605404    -0.30500
H1139       H  0.36818683  0.76942823  0.30285246     0.13700
H1140       H  0.36568821  0.82481452  0.25214885     0.14200
C1141       C  0.45151022  0.86083954  0.26245007    -0.15400
C1142       C  0.46445268  0.88387435  0.27909197    -0.30500
H1143       H  0.44180600  0.86386692  0.23524928     0.13700
H1144       H  0.47343552  0.88130413  0.30674485     0.14200
C1145       C  0.90083512  0.30263084  0.29228580     0.81300
N1146       N  0.91798617  0.28917524  0.31840343    -0.77000
C1147       C  0.94585541  0.29926767  0.32529572     0.83700
N1148       N  0.95621228  0.32342157  0.30640492    -0.77000
C1149       C  0.93890272  0.33656296  0.27995144     0.83800
N1150       N  0.91164436  0.32589926  0.27310372    -0.78700
C1151       C  0.86549178  0.42190920  0.04843683     0.81300
N1152       N  0.85387279  0.39610267  0.06187006    -0.77000
C1153       C  0.82495546  0.38929327  0.05549153     0.83700
N1154       N  0.80754468  0.40845515  0.03572918    -0.77000
C1155       C  0.81882686  0.43408320  0.02171899     0.83800
N1156       N  0.84785346  0.44070246  0.02818847    -0.78700
C1157       C  0.69137851  0.38550614  0.31397721     0.81300
N1158       N  0.66537023  0.39800889  0.30259184    -0.77000
C1159       C  0.65894576  0.42713696  0.31002268     0.83700
N1160       N  0.67863900  0.44395737  0.32920805    -0.77000
C1161       C  0.70460694  0.43176821  0.34128002     0.83800
N1162       N  0.71098800  0.40247985  0.33343072    -0.78700
C1163       C  0.94838392  0.14322216  0.06729808     0.81300
N1164       N  0.92238562  0.15369538  0.08097711    -0.77000
C1165       C  0.91211538  0.18125026  0.07188921     0.83700
N1166       N  0.92806123  0.19854072  0.04865867    -0.77000
C1167       C  0.95427358  0.18821570  0.03501843     0.83800
N1168       N  0.96428646  0.16046141  0.04413443    -0.78700
C1169       C  0.58342920  0.43986105  0.26551109     0.43500
N1170       N  0.56520621  0.46950423  0.22487726     0.02400
C1171       C  0.92871894  0.04287442  0.22703072    -0.05500
H1172       H  0.93450364  0.41772683  0.20728192     0.07900
C1173       C  0.96780409  0.44056317  0.08457392    -0.05800
Co1174     Co  0.50838604  0.49801817  0.24819561     0.74200
N1175       N  0.96213689  0.45529881  0.22162442    -0.25000
Co1176     Co  0.95674459  0.48849208  0.18022728     0.74100
C1177       C  0.94035631  0.42706843  0.09841877     0.43600
N1178       N  0.54251708  0.46069114  0.11713709     0.02000
N1179       N  0.95863415  0.45651856  0.13946066     0.02100
N1180       N  0.95950594  0.04065869  0.27605047    -0.45800
H1181       H  0.54357309  0.44738133  0.30402893     0.07900
N1182       N  0.48045206  0.46199460  0.24851834     0.02400
N1183       N  0.95682733  0.02472312  0.13896320     0.02200
C1184       C  0.95239835  0.06508295  0.10820683     0.43800
N1185       N  0.56288847  0.46301641  0.14336497    -0.24400
C1186       C  0.53436814  0.05702634  0.26648940    -0.05400
N1187       N  0.58873226  0.45288901  0.23286050    -0.45500
N1188       N  0.94064183  0.04942260  0.13611718    -0.45800
C1189       C  0.55821129  0.07403938  0.25012292     0.43500
N1190       N  0.96889096  0.02294567  0.24892814     0.02400
N1191       N  0.56230922  0.02341483  0.14315686    -0.24500
N1192       N  0.54507883  0.46928570  0.25096916    -0.25000
N1193       N  0.54419873  0.02024236  0.11497566     0.02100
H1194       H  0.60371101  0.04596853  0.15056220     0.07900
H1195       H  0.99299675  0.05361774  0.07222157     0.08000
N1196       N  0.95074669  0.02340393  0.22047810    -0.25000
N1197       N  0.97768211  0.45828707  0.11219988    -0.24600
N1198       N  0.55677057  0.03112769  0.22401204     0.02400
C1199       C  0.96573599  0.41508224  0.25798046     0.43800
C1200       C  0.57996083  0.43835752  0.14258972    -0.05900
N1201       N  0.97853891  0.02350741  0.11459838    -0.24600
H1202       H  0.47484314  0.44014170  0.05722782     0.08000
N1203       N  0.48282947  0.43931678  0.27163533    -0.45800
H1204       H  0.59760688  0.43292223  0.16173570     0.08000
C1205       C  0.57845393  0.04976452  0.09608377     0.43700
C1206       C  0.55453348  0.45087536  0.27796805    -0.05400
Co1207     Co  0.56233441  0.49872666  0.18115123     0.73800
N1208       N  0.54418977  0.43527177  0.09867707    -0.45600
C1209       C  0.93466478  0.05465616  0.26360410     0.43900
N1210       N  0.57126035  0.05674480  0.22414795    -0.45500
Co1211     Co  0.50924829  0.49221183  0.11196502     0.73900
C1212       C  0.97747447  0.04807209  0.09370662    -0.05900
C1213       C  0.95053146  0.42784273  0.22556387    -0.05400
N1214       N  0.53511806  0.03090824  0.24848713    -0.25000
N1215       N  0.93620101  0.43860616  0.13222183    -0.45700
H1216       H  0.90912950  0.04575189  0.21009371     0.07900
C1217       C  0.58404120  0.04203225  0.13419325    -0.05800
Cl1218     Cl  0.50883151  0.49483359  0.18019523    -0.48800
C1219       C  0.56734348  0.42024510  0.11317213     0.43700
H1220       H  0.51864175  0.06332227  0.28760354     0.07900
N1221       N  0.55382561  0.03477906  0.08543462    -0.45600
C1222       C  0.59618701  0.30004812  0.09007324     0.81300
N1223       N  0.58339222  0.28400142  0.06243011    -0.77000
C1224       C  0.55992189  0.29594401  0.04355069     0.83700
N1225       N  0.55041435  0.32428325  0.05125763    -0.77000
C1226       C  0.56383792  0.34028794  0.07824189     0.83800
N1227       N  0.58622956  0.32779961  0.09772218    -0.78700
C1228       C  0.86223715  0.06062143  0.31685826     0.81300
N1229       N  0.84411358  0.04150838  0.33497441    -0.77000
C1230       C  0.81682981  0.05071228  0.34642609     0.83700
N1231       N  0.80785635  0.07941066  0.33990732    -0.77000
C1232       C  0.82573752  0.09871360  0.32170321     0.83800
N1233       N  0.85290626  0.08916477  0.31025091    -0.78700
C1234       C  0.56232171  0.15240532  0.29157544     0.81300
N1235       N  0.54697904  0.17020948  0.31529731    -0.77000
C1236       C  0.55895131  0.19631857  0.32739176     0.83700
N1237       N  0.58665189  0.20414126  0.31636535    -0.77000
C1238       C  0.60196609  0.18625050  0.29260638     0.83800
N1239       N  0.58961234  0.16061841  0.28051121    -0.78700
C1240       C  0.69262080  0.08265319  0.05328860     0.81300
N1241       N  0.71025907  0.06330812  0.03414334    -0.77000
C1242       C  0.69925438  0.03707418  0.02109650     0.83700
N1243       N  0.67041382  0.03012122  0.02788946    -0.77000
C1244       C  0.65262368  0.04933729  0.04714687     0.83800
N1245       N  0.66388213  0.07563101  0.05955834    -0.78700
C1246       C  0.82197917  0.29885735  0.25389934     0.43500
N1247       N  0.78183266  0.29184528  0.22347571     0.02400
C1248       C  0.69708185  0.16739086  0.22033707    -0.05500
H1249       H  0.81237660  0.14394747  0.21785592     0.07900
C1250       C  0.81819454  0.20806711  0.09998525    -0.05800
Co1251     Co  0.75154382  0.23735426  0.24993855     0.74200
N1252       N  0.78704229  0.18450947  0.22514499    -0.25000
Co1253     Co  0.75807752  0.18305448  0.18158696     0.74100
C1254       C  0.83542945  0.18391082  0.11651282     0.43600
N1255       N  0.78462150  0.27511722  0.11538930     0.02000
N1256       N  0.79354266  0.18703817  0.14399232     0.02100
N1257       N  0.69507884  0.20387646  0.26376596    -0.45800
H1258       H  0.81346732  0.25852547  0.29159888     0.07900
N1259       N  0.78445867  0.20382604  0.25236168     0.02400
N1260       N  0.72950956  0.17997148  0.13753014     0.02200
C1261       C  0.70221779  0.16029239  0.09575327     0.43800
N1262       N  0.78062483  0.29490493  0.14184770    -0.24400
C1263       C  0.70269223  0.28201050  0.27778733    -0.05400
N1264       N  0.80550447  0.30912822  0.22525716    -0.45500
N1265       N  0.71428620  0.15574208  0.12922155    -0.45800
C1266       C  0.68974522  0.31013970  0.26417310     0.43500
N1267       N  0.72023741  0.20432708  0.24533800     0.02400
N1268       N  0.71650862  0.28535565  0.13994340    -0.24500
N1269       N  0.78253235  0.27068963  0.24895542    -0.25000
N1270       N  0.72096199  0.26549892  0.11331301     0.02100
H1271       H  0.67790950  0.31159878  0.15500654     0.07900
H1272       H  0.70937992  0.20012464  0.05665369     0.08000
N1273       N  0.72210573  0.18349654  0.21932680    -0.25000
N1274       N  0.79286690  0.20839860  0.11879092    -0.24600
N1275       N  0.71704943  0.29020166  0.22216045     0.02400
C1276       C  0.81734210  0.17179854  0.27045808     0.43800
C1277       C  0.79647085  0.31927331  0.13489278    -0.05900
N1278       N  0.72936181  0.19997199  0.11095994    -0.24600
H1279       H  0.82378887  0.22326093  0.07800049     0.08000
N1280       N  0.80149673  0.19633025  0.28095983    -0.45800
H1281       H  0.79561914  0.33991433  0.15053683     0.08000
C1282       C  0.67655507  0.28013396  0.10430671     0.43700
C1283       C  0.80675519  0.27352583  0.26971743    -0.05400
Co1284     Co  0.74883543  0.29116391  0.18175853     0.73800
N1285       N  0.80244209  0.28534960  0.08919589    -0.45600
C1286       C  0.67935573  0.18115663  0.24971963     0.43900
N1287       N  0.70020388  0.31374543  0.22987636    -0.45500
Co1288     Co  0.75716706  0.23733128  0.11375036     0.73900
C1289       C  0.71227331  0.18963456  0.08326655    -0.05900
C1290       C  0.80747959  0.16390605  0.23374173    -0.05400
N1291       N  0.71910302  0.27119468  0.24971083    -0.25000
N1292       N  0.81887800  0.17169667  0.14352148    -0.45700
H1293       H  0.69118697  0.14965788  0.20142431     0.07900
C1294       C  0.68870999  0.29607445  0.13637174    -0.05800
Cl1295     Cl  0.75392354  0.23723695  0.18175776    -0.48800
C1296       C  0.81108358  0.31302015  0.10021454     0.45700
H1297       H  0.70261242  0.27315697  0.30549231     0.07900
N1298       N  0.69779575  0.26181128  0.09154710    -0.45600
N1299       N  0.72665341  0.45766389  0.43578209    -0.35500
N1300       N  0.75752592  0.49185510  0.49346580    -0.56100
N1301       N  0.79185879  0.02765085  0.44032920    -0.35500
N1302       N  0.75977861  0.48815810  0.37853140    -0.56100
C1303       C  0.71742427  0.44317684  0.46628593     0.28100
C1304       C  0.71890614  0.44088182  0.40617123     0.28100
C1305       C  0.80583414  0.03781120  0.47094190     0.28000
C1306       C  0.80747419  0.03695874  0.41082969     0.28000
C1307       C  0.73785348  0.47747577  0.51485776     0.36700
C1308       C  0.77363245  0.01476758  0.51893316     0.36700
C1309       C  0.74078610  0.47274319  0.35671818     0.36700
C1310       C  0.77879020  0.01128744  0.36046696     0.36700
C1311       C  0.70333120  0.41698529  0.45591810    -0.20800
C1312       C  0.70424200  0.41554030  0.41819127    -0.20800
C1313       C  0.83041685  0.05416784  0.46067212    -0.20800
C1314       C  0.83145054  0.05364897  0.42294689    -0.20800
C1315       C  0.73946297  0.48827996  0.55069326    -0.21900
C1316       C  0.76255482  0.01280072  0.55440211    -0.21900
C1317       C  0.74266563  0.48315050  0.32085116    -0.21900
C1318       C  0.76324507  0.50583986  0.32104974    -0.21900
C1319       C  0.71979800  0.45351889  0.50313331    -0.17200
C1320       C  0.72272690  0.44868712  0.36858664    -0.17200
C1321       C  0.80022561  0.03218231  0.37318412    -0.17200
C1322       C  0.79656077  0.03403045  0.50789488    -0.17200
H1323       H  0.69296954  0.40069594  0.47358496     0.15700
H1324       H  0.69458857  0.39793472  0.40169269     0.15700
H1325       H  0.84592483  0.06568723  0.47841536     0.15700
H1326       H  0.84798621  0.06463170  0.40639466     0.15700
H1327       H  0.72694016  0.48090212  0.57430850     0.14000
H1328       H  0.76895853  0.02586477  0.57824919     0.14000
H1329       H  0.73059141  0.47515773  0.29701303     0.14000
H1330       H  0.77811258  0.01961447  0.30033277     0.14000
H1331       H  0.73610103  0.47861960  0.43525681     0.27200
H1332       H  0.77206895  0.01631140  0.43945582     0.27200
N1333       N  0.97609716  0.21281930  0.94048012    -0.35500
N1334       N  0.50868915  0.23988664  0.00092371    -0.56100
N1335       N  0.53947788  0.27576334  0.94559798    -0.35500
N1336       N  0.50682139  0.24601442  0.88612795    -0.56100
C1337       C  0.96090560  0.20378554  0.97048123     0.28100
C1338       C  0.95980707  0.20555504  0.91050077     0.28100
C1339       C  0.54901106  0.28936388  0.97685208     0.28000
C1340       C  0.54823016  0.29256412  0.91661909     0.28000
C1341       C  0.99455023  0.22315758  0.01968463     0.36700
C1342       C  0.52745445  0.25444616  0.02369437     0.36700
C1343       C  0.99051192  0.22964591  0.86167058     0.36700
C1344       C  0.52509340  0.26283132  0.86520611     0.36700
C1345       C  0.93480160  0.19029754  0.95937796    -0.20800
C1346       C  0.93410436  0.19138370  0.92165386    -0.20800
C1347       C  0.56439897  0.31497832  0.96749236    -0.20800
C1348       C  0.56391100  0.31698455  0.92975187    -0.20800
C1349       C  0.00497587  0.22408903  0.05561793    -0.21900
C1350       C  0.52483097  0.24339841  0.05924393    -0.21900
C1351       C  0.99981114  0.23337702  0.82564915    -0.21900
C1352       C  0.52191001  0.25474836  0.82848778    -0.21900
C1353       C  0.97050968  0.20576363  0.00752090    -0.17200
C1354       C  0.96809389  0.20963748  0.87327481    -0.17200
C1355       C  0.54392683  0.28593143  0.87859259    -0.17200
C1356       C  0.54542091  0.27888835  0.01354543    -0.17200
H1357       H  0.91807069  0.18030916  0.97658151     0.15700
H1358       H  0.91665696  0.18241835  0.90446619     0.15700
H1359       H  0.57539017  0.33051444  0.98578540     0.15700
H1360       H  0.57436827  0.33439600  0.91390698     0.15700
H1361       H  0.99719409  0.21140531  0.07897500     0.14000
H1362       H  0.53634099  0.25078185  0.08379380     0.14000
H1363       H  0.99198335  0.22157940  0.80146471     0.14000
H1364       H  0.53314583  0.26425988  0.80503981     0.14000
H1365       H  0.99715382  0.22168534  0.94025090     0.27200
H1366       H  0.52875287  0.25552355  0.94408966     0.27200
N1367       N  0.50494412  0.25283566  0.36699961    -0.35500
N1368       N  0.53881899  0.21945575  0.42373147    -0.56100
N1369       N  0.50499641  0.24946291  0.48191276    -0.35500
N1370       N  0.96892959  0.27775505  0.42176179    -0.56100
C1371       C  0.51972152  0.23306229  0.34528632     0.28100
C1372       C  0.98452586  0.26168369  0.34344701     0.28100
C1373       C  0.52240273  0.23135439  0.50317115     0.28000
C1374       C  0.98446409  0.26268606  0.50138358     0.28000
C1375       C  0.55278393  0.20920138  0.39318650     0.36700
C1376       C  0.55401911  0.20853237  0.45311928     0.36700
C1377       C  0.95831526  0.29231319  0.39165343     0.36700
C1378       C  0.95700188  0.29145401  0.45168221     0.36700
C1379       C  0.50848578  0.23477714  0.30968694    -0.20800
C1380       C  0.98634857  0.24976422  0.30816305    -0.20800
C1381       C  0.51342072  0.23426373  0.53952270    -0.20800
C1382       C  0.98985137  0.25508179  0.53788503    -0.20800
C1383       C  0.57680278  0.19139793  0.40325867    -0.21900
C1384       C  0.57761541  0.19100134  0.44095530    -0.21900
C1385       C  0.93935538  0.31525081  0.40249614    -0.21900
C1386       C  0.93846568  0.31468790  0.44030156    -0.21900
C1387       C  0.54350627  0.21398859  0.35624058    -0.17200
C1388       C  0.96417289  0.28450099  0.35438560    -0.17200
C1389       C  0.96228576  0.28364625  0.48923358    -0.17200
C1390       C  0.54641703  0.21270558  0.49082375    -0.17200
H1391       H  0.51564006  0.22210692  0.28580695     0.15700
H1392       H  0.97289212  0.25566851  0.28446932     0.15700
H1393       H  0.52284433  0.22306692  0.56330901     0.15700
H1394       H  0.97819530  0.26336018  0.56190733     0.15700
H1395       H  0.59204793  0.17950444  0.38538105     0.14000
H1396       H  0.59363448  0.17870397  0.45738122     0.14000
H1397       H  0.92731286  0.33077233  0.38498868     0.14000
H1398       H  0.92572822  0.32990166  0.45743488     0.14000
H1399       H  0.50952370  0.25736666  0.39434240     0.27200
H1400       H  0.50696239  0.25262110  0.45395065     0.27200
N1401       N  0.75854307  0.48902011  0.87114402    -0.35500
N1402       N  0.79302412  0.45706922  0.92706824    -0.56100
N1403       N  0.76149365  0.49031596  0.98584298    -0.35500
N1404       N  0.72350789  0.01586686  0.92576178    -0.56100
C1405       C  0.77368655  0.47000111  0.84883237     0.28100
C1406       C  0.74224346  0.00559189  0.84713440     0.28100
C1407       C  0.77677938  0.46992071  0.00635697     0.28000
C1408       C  0.74057353  0.00106914  0.00371285     0.28000
C1409       C  0.80642695  0.44578993  0.89656951     0.36700
C1410       C  0.80841315  0.44665520  0.95654575     0.36700
C1411       C  0.70939010  0.02740835  0.89597883     0.36700
C1412       C  0.70810110  0.02512696  0.95565941     0.36700
C1413       C  0.76336571  0.47331742  0.81297338    -0.20800
C1414       C  0.75401777  0.00560752  0.81188140    -0.20800
C1415       C  0.76526958  0.47004784  0.04178738    -0.20800
C1416       C  0.75255806  0.99972372  0.03892613    -0.20800
C1417       C  0.83005241  0.42757475  0.90682466    -0.21900
C1418       C  0.83135147  0.42813523  0.94454191    -0.21900
C1419       C  0.68518415  0.04445624  0.90703071    -0.21900
C1420       C  0.68434346  0.04302788  0.94464657    -0.21900
C1421       C  0.79750837  0.45086669  0.85947618    -0.17200
C1422       C  0.71887720  0.02452845  0.85902513    -0.17200
C1423       C  0.71627442  0.01979864  0.99288478    -0.17200
C1424       C  0.80113969  0.45167468  0.99421882    -0.17200
H1425       H  0.77108569  0.46175180  0.78854445     0.15700
H1426       H  0.74773961  0.01988151  0.78904031     0.15700
H1427       H  0.77257427  0.45650875  0.06484206     0.15700
H1428       H  0.74577225  0.01265654  0.06275690     0.15700
H1429       H  0.84469805  0.41481749  0.88905746     0.14000
H1430       H  0.84715529  0.41568674  0.96111284     0.14000
H1431       H  0.66993206  0.05711517  0.88989357     0.14000
H1432       H  0.66833120  0.05457180  0.96179267     0.14000
H1433       H  0.76233682  0.49249004  0.89883116     0.27200
H1434       H  0.76623918  0.49613094  0.95895772     0.27200
C1435       C  0.82244939  0.40144334  0.78218044     0.81300
N1436       N  0.84972097  0.41213148  0.77636444    -0.77000
C1437       C  0.86071008  0.43446561  0.79720562     0.83700
N1438       N  0.84364459  0.44710526  0.82386420    -0.77000
C1439       C  0.81570856  0.43693679  0.82979379     0.83800
N1440       N  0.80525010  0.41355357  0.80934713    -0.78700
C1441       C  0.90610962  0.18218379  0.81582166     0.81300
N1442       N  0.92469675  0.20121731  0.83358905    -0.77000
C1443       C  0.95156315  0.19139139  0.84599332     0.83700
N1444       N  0.95980034  0.16232730  0.84027273    -0.77000
C1445       C  0.94151863  0.14328411  0.82197418     0.83800
N1446       N  0.91465854  0.15335066  0.81007525    -0.78700
C1447       C  0.69986028  0.08620147  0.79472999     0.81300
N1448       N  0.71521060  0.06877918  0.81893308    -0.77000
C1449       C  0.70325943  0.04273102  0.83104495     0.83700
N1450       N  0.67582292  0.03451318  0.81949695    -0.77000
C1451       C  0.66057854  0.05202500  0.79542722     0.83800
N1452       N  0.67274068  0.07762966  0.78328171    -0.78700
C1453       C  0.57297578  0.35023515  0.82442295     0.81300
N1454       N  0.55426773  0.33265687  0.84413298    -0.77000
C1455       C  0.56177075  0.30367706  0.85197992     0.83700
N1456       N  0.58802991  0.29235765  0.83967332    -0.77000
C1457       C  0.60686650  0.30973360  0.82009907     0.83800
N1458       N  0.59923676  0.33859800  0.81262484    -0.78700
C1459       C  0.57217961  0.14850205  0.54846169     0.81300
N1460       N  0.60067105  0.15628856  0.55553904    -0.77000
C1461       C  0.61120628  0.18320667  0.54445869     0.83700
N1462       N  0.59291198  0.20235687  0.52564625    -0.77000
C1463       C  0.56426986  0.19478079  0.51806705     0.83800
N1464       N  0.55401080  0.16787810  0.52990410    -0.78700
C1465       C  0.82043117  0.09515578  0.57006792     0.81300
N1466       N  0.84730671  0.08475054  0.58108195    -0.77000
C1467       C  0.85724529  0.05747033  0.56998818     0.83700
N1468       N  0.84011301  0.04049677  0.54751354    -0.77000
C1469       C  0.81302534  0.05065889  0.53650076     0.83800
N1470       N  0.80336958  0.07817104  0.54744999    -0.78700
C1471       C  0.68110876  0.29920596  0.77119589     0.43500
N1472       N  0.69948926  0.27052840  0.72951052     0.02400
C1473       C  0.83734776  0.20029218  0.73141807    -0.05500
H1474       H  0.83055740  0.31968218  0.71014095     0.07900
C1475       C  0.79743403  0.29446440  0.58678650    -0.05800
Co1476     Co  0.75662476  0.24168572  0.75235291     0.74200
N1477       N  0.80390385  0.28156767  0.72484453    -0.25000
Co1478     Co  0.80887273  0.24825592  0.68338255     0.74100
C1479       C  0.82553320  0.30720840  0.59944570     0.43600
N1480       N  0.72145358  0.27814931  0.62124995     0.02000
N1481       N  0.80722459  0.27981148  0.64215906     0.02100
N1482       N  0.80435809  0.19612407  0.77761365    -0.45800
H1483       H  0.72116916  0.29112135  0.80959355     0.07900
N1484       N  0.78453184  0.27762440  0.75168069     0.02400
N1485       N  0.80887108  0.21440962  0.64240162     0.02200
C1486       C  0.81595485  0.17366337  0.61222490     0.43800
N1487       N  0.70135411  0.27679283  0.64772249    -0.24400
C1488       C  0.72832392  0.18042791  0.76695958    -0.05400
N1489       N  0.67582099  0.28675143  0.73806716    -0.45500
N1490       N  0.82651114  0.19052180  0.64031566    -0.45800
C1491       C  0.70434076  0.16340822  0.75067689     0.43500
N1492       N  0.79381626  0.21336351  0.75066769     0.02400
N1493       N  0.70151095  0.21176386  0.64209354    -0.24500
N1494       N  0.71978903  0.27044697  0.75561616    -0.25000
N1495       N  0.72034848  0.21342173  0.61461625     0.02100
H1496       H  0.65901911  0.19113164  0.64828412     0.07900
H1497       H  0.77508709  0.18234519  0.57531843     0.08000
N1498       N  0.81310093  0.21651625  0.72394171    -0.25000
N1499       N  0.78769452  0.27790947  0.61523627    -0.24600
N1500       N  0.70649373  0.20569686  0.72344888     0.02400
C1501       C  0.79988479  0.32185900  0.76114722     0.43800
C1502       C  0.68491851  0.30197271  0.64659107    -0.05900
N1503       N  0.78732047  0.21364262  0.61752668    -0.24600
H1504       H  0.78773478  0.29493234  0.55949553     0.08000
N1505       N  0.78159007  0.30093238  0.77375568    -0.45800
H1506       H  0.66746100  0.30809078  0.66557135     0.08000
C1507       C  0.68536621  0.18466428  0.59515688     0.43700
C1508       C  0.71019643  0.28816551  0.78330726    -0.05400
Co1509     Co  0.70163610  0.24113951  0.68572892     0.73800
N1510       N  0.72009577  0.30324082  0.60216022    -0.45600
C1511       C  0.83152748  0.18650542  0.76672541     0.43900
N1512       N  0.69163410  0.18028494  0.72398309    -0.45500
Co1513     Co  0.75411562  0.24574395  0.61634627     0.73900
C1514       C  0.79012836  0.18901116  0.59701967    -0.05900
C1515       C  0.81506510  0.30926503  0.72866358    -0.05400
N1516       N  0.72803867  0.20610943  0.74827972    -0.25000
N1517       N  0.83016076  0.29660269  0.63363972    -0.45700
H1518       H  0.85777003  0.20074365  0.71593530     0.07900
C1519       C  0.67916959  0.19388046  0.63266543    -0.05800
Cl1520     Cl  0.75533147  0.24416639  0.68439437    -0.48800
C1521       C  0.69757689  0.31926132  0.61654431     0.43700
H1522       H  0.74389752  0.17439052  0.78846236     0.07900
N1523       N  0.71088752  0.19827818  0.58522535    -0.45600
C1524       C  0.89890097  0.31082173  0.54705422     0.81300
N1525       N  0.91055373  0.33635636  0.56127965    -0.77000
C1526       C  0.93897610  0.34402098  0.55402386     0.83700
N1527       N  0.95599639  0.32592430  0.53239564    -0.77000
C1528       C  0.94464748  0.30054624  0.51739894     0.83800
N1529       N  0.91602765  0.29300346  0.52487718    -0.78700
C1530       C  0.65898677  0.43244096  0.56570509     0.81300
N1531       N  0.67568798  0.44830796  0.54182082    -0.77000
C1532       C  0.70261768  0.43746671  0.53117450     0.83700
N1533       N  0.71253661  0.41052970  0.54388897    -0.77000
C1534       C  0.69577900  0.39471391  0.56773025     0.83800
N1535       N  0.66920203  0.40580667  0.57835684    -0.78700
C1536       C  0.93943958  0.43637423  0.76041379     0.43500
N1537       N  0.97871760  0.44207421  0.72867586     0.02400
C1538       C  0.56810089  0.06794896  0.71904082    -0.05500
H1539       H  0.95665895  0.09710839  0.71545478     0.07900
C1540       C  0.95148868  0.02795731  0.59802572    -0.05800
Co1541     Co  0.51148313  0.00002719  0.74921172     0.74200
N1542       N  0.97884141  0.05491956  0.72471459    -0.25000
Co1543     Co  0.50913898  0.05169481  0.67771335     0.74100
C1544       C  0.93474061  0.05329954  0.61276586     0.43600
N1545       N  0.97937610  0.45458576  0.61858195     0.02000
N1546       N  0.97541729  0.04910286  0.64289298     0.02100
N1547       N  0.56855284  0.03298314  0.76428423    -0.45800
H1548       H  0.94890964  0.47800597  0.79593745     0.07900
N1549       N  0.97966935  0.03635446  0.75279557     0.02400
N1550       N  0.53926889  0.05201593  0.63538478     0.02200
C1551       C  0.56584291  0.07094131  0.59261029     0.43800
N1552       N  0.98041552  0.43592796  0.64660394    -0.24400
C1553       C  0.55867425  0.45440274  0.78608571    -0.05400
N1554       N  0.95519828  0.42487878  0.73204576    -0.45500
N1555       N  0.55376888  0.07631164  0.62576700    -0.45800
C1556       C  0.57096687  0.42529084  0.77451096     0.43500
N1557       N  0.54418111  0.03168905  0.74417393     0.02400
N1558       N  0.54496274  0.44222074  0.64997667    -0.24500
N1559       N  0.97876250  0.46418930  0.75297991    -0.25000
N1560       N  0.54432724  0.46173180  0.62255853     0.02100
H1561       H  0.57694094  0.40863866  0.66666728     0.07900
H1562       H  0.55898072  0.02965517  0.55538224     0.08000
N1563       N  0.54335820  0.05165270  0.71723468    -0.25000
N1564       N  0.97621034  0.02706434  0.61841872    -0.24600
N1565       N  0.54303397  0.44310143  0.73163018     0.02400
C1566       C  0.94879296  0.07090361  0.76862334     0.43800
C1567       C  0.96267476  0.41279414  0.63972405    -0.05900
N1568       N  0.53993831  0.03086973  0.60999869    -0.24600
H1569       H  0.94575240  0.01222377  0.57652005     0.08000
N1570       N  0.96265941  0.04568088  0.78043181    -0.45800
H1571       H  0.96114720  0.39280516  0.65634098     0.08000
C1572       C  0.58499238  0.43783043  0.61572835     0.43700
C1573       C  0.95496526  0.46232791  0.77443790    -0.05400
Co1574     Co  0.01161669  0.43925422  0.68794085     0.73800
N1575       N  0.96185357  0.44479771  0.59168276    -0.45600
C1576       C  0.58456026  0.05534093  0.75005277     0.43900
N1577       N  0.55970247  0.41981423  0.74088628    -0.45500
Co1578     Co  0.51037911  0.99468735  0.61301319     0.73900
C1579       C  0.55666891  0.04066772  0.58180450    -0.05900
C1580       C  0.95978812  0.07720808  0.73200101    -0.05400
N1581       N  0.54179952  0.46378726  0.75750290    -0.25000
N1582       N  0.95080198  0.06537999  0.64043040    -0.45700
H1583       H  0.57448466  0.08518770  0.69985983     0.07900
C1584       C  0.56987647  0.42591928  0.64766062    -0.05800
Cl1585     Cl  0.51075988  0.99742680  0.68108044    -0.48800
C1586       C  0.95008152  0.41877987  0.60357701     0.43700
H1587       H  0.55976869  0.46506716  0.81284019     0.07900
N1588       N  0.56809932  0.45999510  0.60137135    -0.45600
C1589       C  0.62957025  0.44335047  0.57731864    -0.15400
C1590       C  0.61416645  0.42824909  0.60270032    -0.30500
H1591       H  0.62061383  0.46379446  0.56531438     0.13700
H1592       H  0.62345793  0.40824861  0.61541355     0.14200
C1593       C  0.95228710  0.37030507  0.57219052    -0.15400
C1594       C  0.93702923  0.39566681  0.57953241    -0.30500
H1595       H  0.97539968  0.36852113  0.58050963     0.13700
H1596       H  0.91449419  0.39872241  0.56955433     0.14200
C1597       C  0.68937002  0.34965375  0.60522922    -0.15400
C1598       C  0.70542083  0.36497003  0.58056945    -0.30500
H1599       H  0.66960585  0.35948284  0.61744892     0.13700
H1600       H  0.72554221  0.35526377  0.56907296     0.14200
C1601       C  0.85015541  0.31931377  0.57743423    -0.15400
C1602       C  0.86874631  0.30118759  0.55835207    -0.30500
H1603       H  0.85642131  0.34228160  0.58306203     0.13700
H1604       H  0.86278929  0.27794025  0.55387757     0.14200
C1605       C  0.81042580  0.12536424  0.58067601    -0.15400
C1606       C  0.82642076  0.14331476  0.60284212    -0.30500
H1607       H  0.78930629  0.13296598  0.56960413     0.13700
H1608       H  0.84721134  0.13554017  0.61476850     0.14200
C1609       C  0.88716039  0.04705588  0.58035317    -0.15400
C1610       C  0.90469494  0.06322475  0.60267708    -0.30500
H1611       H  0.89489529  0.02580942  0.56920179     0.13700
H1612       H  0.89672773  0.08413528  0.61455303     0.14200
C1613       C  0.56019821  0.12053539  0.56412393    -0.15400
C1614       C  0.57665243  0.09541451  0.56892448    -0.30500
H1615       H  0.53738516  0.12105532  0.57360841     0.13700
H1616       H  0.59884384  0.09371958  0.55762863     0.14200
C1617       C  0.64126149  0.19296615  0.55623581    -0.15400
C1618       C  0.66190974  0.17385847  0.56992092    -0.30500
H1619       H  0.64536426  0.21688697  0.55734951     0.13700
H1620       H  0.65774380  0.14995992  0.56968514     0.14200
C1621       C  0.65743866  0.31288458  0.79368835    -0.15400
C1622       C  0.63427106  0.29641579  0.80461168    -0.30500
H1623       H  0.65779259  0.33688391  0.79848269     0.13700
H1624       H  0.63497539  0.27227980  0.80068056     0.14200
C1625       C  0.56359916  0.38087717  0.81308177    -0.15400
C1626       C  0.58235772  0.40051467  0.79760094    -0.30500
H1627       H  0.54012706  0.38644203  0.81438114     0.13700
H1628       H  0.60575329  0.39495873  0.79537575     0.14200
C1629       C  0.71115740  0.11541532  0.78303116    -0.15400
C1630       C  0.69523730  0.13304865  0.76011612    -0.30500
H1631       H  0.73210745  0.12290656  0.79437057     0.13700
H1632       H  0.67459498  0.12529701  0.74813006     0.14200
C1633       C  0.63030307  0.04449057  0.78419702    -0.15400
C1634       C  0.61493892  0.06215707  0.76085981    -0.30500
H1635       H  0.62035914  0.02450538  0.79559637     0.13700
H1636       H  0.62491539  0.08183529  0.74876147     0.14200
C1637       C  0.95210420  0.11290069  0.81168723    -0.15400
C1638       C  0.93509637  0.09392556  0.79220965    -0.30500
H1639       H  0.97543317  0.10759207  0.81586068     0.13700
H1640       H  0.91214828  0.09971997  0.78633332     0.14200
C1641       C  0.87801220  0.19351650  0.80001875    -0.15400
C1642       C  0.85514277  0.17558655  0.79152346    -0.30500
H1643       H  0.87671889  0.21716011  0.79308385     0.13700
H1644       H  0.85536844  0.15215093  0.79940273     0.14200
C1645       C  0.80101933  0.35180167  0.77779073    -0.15400
C1646       C  0.81452728  0.37447042  0.76147897    -0.30500
H1647       H  0.79159387  0.35477854  0.80508660     0.13700
H1648       H  0.82476643  0.37104501  0.73472375     0.14200
C1649       C  0.89156063  0.44342396  0.79172071    -0.15400
C1650       C  0.90924721  0.42750889  0.76896830    -0.30500
H1651       H  0.89966561  0.46298099  0.80625683     0.13700
H1652       H  0.90107746  0.40783163  0.75468287     0.14200
C1653       C  0.69003894  0.13572635  0.07332946    -0.15400
C1654       C  0.70534067  0.10986082  0.06982870    -0.30500
H1655       H  0.66829995  0.13844488  0.06078676     0.13700
H1656       H  0.72793321  0.10839476  0.08020629     0.14200
C1657       C  0.64841565  0.17497979  0.25943983    -0.15400
C1658       C  0.63266639  0.19319604  0.28198869    -0.30500
H1659       H  0.63842349  0.15517760  0.24745760     0.13700
H1660       H  0.64267861  0.21322195  0.29340200     0.14200
C1661       C  0.81430492  0.12882959  0.31148875    -0.15400
C1662       C  0.83120927  0.14954658  0.29511259    -0.30500
H1663       H  0.79053456  0.13267756  0.31334870     0.13700
H1664       H  0.85478834  0.14540472  0.29174694     0.14200
C1665       C  0.62355599  0.29073807  0.10851612    -0.15400
C1666       C  0.64643107  0.28040544  0.08907789    -0.30500
H1667       H  0.62706541  0.29850192  0.13658579     0.13700
H1668       H  0.64335136  0.27334707  0.06064435     0.14200
C1669       C  0.60237254  0.06011378  0.07177123    -0.15400
C1670       C  0.62208955  0.04048787  0.05735024    -0.30500
H1671       H  0.60796409  0.08366272  0.07351082     0.13700
H1672       H  0.61684007  0.01679398  0.05678724     0.14200
C1673       C  0.55099062  0.12292114  0.28062420    -0.15400
C1674       C  0.56705060  0.10469974  0.25867670    -0.30500
H1675       H  0.53001949  0.11566313  0.29190511     0.13700
H1676       H  0.58771676  0.11220629  0.24676679     0.14200
C1677       C  0.89099334  0.04950213  0.30249358    -0.15400
C1678       C  0.91125776  0.06749058  0.28718730    -0.30500
H1679       H  0.89471375  0.02541332  0.30203592     0.13700
H1680       H  0.90773077  0.09156232  0.28656181     0.14200
C1681       C  0.57362372  0.38872136  0.10643661    -0.15400
C1682       C  0.55653759  0.37194936  0.08423450    -0.30500
H1683       H  0.59249446  0.37906693  0.12096191     0.13700
H1684       H  0.53777159  0.38175383  0.06962275     0.14200
C1685       C  0.94284098  0.09536360  0.09864496    -0.15400
C1686       C  0.95858846  0.11284364  0.07621969    -0.30500
H1687       H  0.92255935  0.10361591  0.11128586     0.13700
H1688       H  0.97916364  0.10480910  0.06414927     0.14200
C1689       C  0.88283814  0.19144857  0.08484765    -0.15400
C1690       C  0.86575529  0.17454977  0.10678023    -0.30500
H1691       H  0.87483418  0.21301442  0.07508220     0.13700
H1692       H  0.87393683  0.15333083  0.11749420     0.14200
C1693       C  0.63201565  0.44124290  0.29464998    -0.15400
C1694       C  0.60707551  0.42598025  0.28778540    -0.30500
H1695       H  0.63305434  0.46483228  0.28750129     0.13700
H1696       H  0.60476060  0.40292590  0.29666347     0.14200
C1697       C  0.69914245  0.35432294  0.30299826    -0.15400
C1698       C  0.67960900  0.33626223  0.28582439    -0.30500
H1699       H  0.72204414  0.34697662  0.30610519     0.13700
H1700       H  0.65694949  0.34382788  0.28137754     0.14200
C1701       C  0.81129452  0.36311839  0.07319638    -0.15400
C1702       C  0.82466540  0.33614532  0.07671187    -0.30500
H1703       H  0.78906466  0.36631562  0.08404033     0.13700
H1704       H  0.84577995  0.33153502  0.06353546     0.14200
C1705       C  0.89629767  0.43107789  0.05813239    -0.15400
C1706       C  0.91521959  0.41376866  0.07785815    -0.30500
H1707       H  0.90257359  0.45393546  0.05189659     0.13700
H1708       H  0.90857158  0.39141708  0.08582412     0.14200
C1709       C  0.87016383  0.29316060  0.28559109    -0.15400
C1710       C  0.85239430  0.30816360  0.26184599    -0.30500
H1711       H  0.86216216  0.27384338  0.30047404     0.13700
H1712       H  0.86050437  0.32742618  0.24688764     0.14200
C1713       C  0.94732367  0.36365484  0.25978525    -0.15400
C1714       C  0.96318897  0.38538031  0.27519434    -0.30500
H1715       H  0.93636797  0.36773374  0.23353883     0.13700
H1716       H  0.97348253  0.38188999  0.30197771     0.14200
C1717       C  0.90752274  0.80467960  0.30336090     0.81300
N1718       N  0.92446079  0.78898963  0.32762635    -0.77000
C1719       C  0.95033436  0.80051896  0.34017654     0.83700
N1720       N  0.95903194  0.82803275  0.32895363    -0.77000
C1721       C  0.94214044  0.84377716  0.30465856     0.83800
N1722       N  0.91644552  0.83201284  0.29202045    -0.78700
C1723       C  0.85914091  0.92063682  0.05051799     0.81300
N1724       N  0.85164567  0.89183113  0.05773214    -0.77000
C1725       C  0.82553794  0.88062137  0.04517257     0.83700
N1726       N  0.80705143  0.89841810  0.02504292    -0.77000
C1727       C  0.81425771  0.92727102  0.01764218     0.83800
N1728       N  0.84027490  0.93836477  0.03064998    -0.78700
C1729       C  0.69666160  0.88802753  0.31798591     0.81300
N1730       N  0.66988906  0.89946591  0.30743037    -0.77000
C1731       C  0.66275943  0.92855167  0.31465562     0.83700
N1732       N  0.68248725  0.94619795  0.33279784    -0.77000
C1733       C  0.70916971  0.93495659  0.34394665     0.83800
N1734       N  0.71619506  0.90589277  0.33615519    -0.78700
C1735       C  0.94420459  0.64100517  0.06523712     0.81300
N1736       N  0.91764276  0.65156497  0.07686515    -0.77000
C1737       C  0.90749659  0.67877521  0.06594773     0.83700
N1738       N  0.92411667  0.69563929  0.04303342    -0.77000
C1739       C  0.95091160  0.68534127  0.03133351     0.83800
N1740       N  0.96081721  0.65787983  0.04220787    -0.78700
C1741       C  0.58488948  0.94041584  0.27482792     0.43500
N1742       N  0.56523920  0.96680066  0.23179619     0.02400
C1743       C  0.92759791  0.53527265  0.22914276    -0.05500
H1744       H  0.91729447  0.92838160  0.20313200     0.07900
C1745       C  0.96489635  0.94050044  0.08542309    -0.05800
Co1746     Co  0.50728703  0.99474008  0.25283626     0.74200
N1747       N  0.95216514  0.95844173  0.21945416    -0.25000
Co1748     Co  0.95271506  0.99175571  0.17913979     0.74100
C1749       C  0.93511834  0.93099478  0.09620088     0.43600
N1750       N  0.54432429  0.95593502  0.12344283     0.02000
N1751       N  0.95283454  0.96012875  0.13773813     0.02100
N1752       N  0.96077294  0.53958905  0.27552704    -0.45800
H1753       H  0.54436906  0.94782297  0.31245869     0.07900
N1754       N  0.48009459  0.95811187  0.25233527     0.02400
N1755       N  0.95613249  0.52224952  0.13886679     0.02200
C1756       C  0.94872883  0.56263081  0.10798024     0.43800
N1757       N  0.56432274  0.95839034  0.15011405    -0.24400
C1758       C  0.53710452  0.55941878  0.26287412    -0.05400
N1759       N  0.58954541  0.95195099  0.24122072    -0.45500
N1760       N  0.93845991  0.54613160  0.13645066    -0.45800
C1761       C  0.56096105  0.57639075  0.24637481     0.43500
N1762       N  0.97164070  0.52327367  0.24794215     0.02400
N1763       N  0.56116266  0.52775178  0.13762649    -0.24500
N1764       N  0.54488716  0.96687411  0.25765194    -0.25000
N1765       N  0.54265252  0.52494203  0.10975320     0.02100
H1766       H  0.60284149  0.54979913  0.14451295     0.07900
H1767       H  0.98927491  0.55348622  0.07113037     0.08000
N1768       N  0.95232613  0.52010677  0.22101544    -0.25000
N1769       N  0.97394581  0.95879557  0.11281359    -0.24600
N1770       N  0.55787489  0.53426058  0.21864711     0.02400
C1771       C  0.94616261  0.91839865  0.25403675     0.43800
C1772       C  0.58174867  0.93379802  0.14928301    -0.05900
N1773       N  0.97738420  0.52276357  0.11381799    -0.24600
H1774       H  0.47800218  0.93594042  0.06091875     0.08000
N1775       N  0.48329145  0.93513305  0.27480649    -0.45800
H1776       H  0.59950331  0.92860702  0.16838702     0.08000
C1777       C  0.57699406  0.55431203  0.09060098     0.43700
C1778       C  0.55516581  0.95031529  0.28610878    -0.05400
Co1779     Co  0.56266621  0.99498772  0.18731816     0.73800
N1780       N  0.54667235  0.93076555  0.10456567    -0.45600
C1781       C  0.93320533  0.54833601  0.26506086     0.43900
N1782       N  0.57300086  0.55951855  0.21925786    -0.45500
Co1783     Co  0.51102970  0.98742597  0.11682828     0.73900
C1784       C  0.97436205  0.54706654  0.09289741    -0.05900
C1785       C  0.93484583  0.93439803  0.22203675    -0.05400
N1786       N  0.53681773  0.53380714  0.24384423    -0.25000
N1787       N  0.92921970  0.94450978  0.12851574    -0.45700
H1788       H  0.90701953  0.53420231  0.21383633     0.07900
C1789       C  0.58290070  0.54626881  0.12851251    -0.05800
Cl1790     Cl  0.50917340  0.99075493  0.18489692    -0.48800
C1791       C  0.56972143  0.91565800  0.11919323     0.43700
H1792       H  0.52211777  0.56535519  0.28494237     0.07900
N1793       N  0.55208747  0.53962847  0.08020381    -0.45600
C1794       C  0.60627360  0.80107780  0.06880790     0.81300
N1795       N  0.58893228  0.78542551  0.04508047    -0.77000
C1796       C  0.56181811  0.79651127  0.03525127     0.83700
N1797       N  0.55243482  0.82347419  0.04860646    -0.77000
C1798       C  0.56986452  0.83905539  0.07225758     0.83800
N1799       N  0.59653018  0.82770362  0.08208078    -0.78700
C1800       C  0.85804245  0.55362162  0.31143800     0.81300
N1801       N  0.83893477  0.53532111  0.32918675    -0.77000
C1802       C  0.81266075  0.54625609  0.34199137     0.83700
N1803       N  0.80548043  0.57562315  0.33648157    -0.77000
C1804       C  0.82431070  0.59391146  0.31814709     0.83800
N1805       N  0.85058992  0.58276120  0.30597524    -0.78700
C1806       C  0.56892094  0.65137761  0.29565493     0.81300
N1807       N  0.55329050  0.66848065  0.31976113    -0.77000
C1808       C  0.56538599  0.69372197  0.33407158     0.83700
N1809       N  0.59344373  0.70153478  0.32483474    -0.77000
C1810       C  0.60912840  0.68431064  0.30079471     0.83800
N1811       N  0.59671040  0.65939453  0.28641472    -0.78700
C1812       C  0.69204714  0.58754962  0.05577725     0.81300
N1813       N  0.71086803  0.56821817  0.03835021    -0.77000
C1814       C  0.70091189  0.54177486  0.02451666     0.83700
N1815       N  0.67175182  0.53469599  0.02864266    -0.77000
C1816       C  0.65277204  0.55381124  0.04635023     0.83800
N1817       N  0.66308885  0.58026199  0.05958484    -0.78700
C1818       C  0.83250809  0.79582670  0.25573030     0.43500
N1819       N  0.79172187  0.79044903  0.22636185     0.02400
C1820       C  0.70167645  0.66859193  0.22615806    -0.05500
H1821       H  0.81204458  0.64110546  0.21419275     0.07900
C1822       C  0.81398016  0.70780277  0.09531839    -0.05800
Co1823     Co  0.75887075  0.73734019  0.25304605     0.74200
N1824       N  0.79038523  0.68350763  0.22355778    -0.25000
Co1825     Co  0.75888392  0.68471335  0.18245860     0.74100
C1826       C  0.83095926  0.68262691  0.10996479     0.43600
N1827       N  0.78637661  0.77600885  0.11675342     0.02000
N1828       N  0.79144415  0.68779390  0.14165174     0.02100
N1829       N  0.70198210  0.70423982  0.27082283    -0.45800
H1830       H  0.82332210  0.75519440  0.29290035     0.07900
N1831       N  0.79002696  0.70224036  0.25160150     0.02400
N1832       N  0.72731566  0.68415861  0.14135577     0.02200
C1833       C  0.69871552  0.66518186  0.10027281     0.43800
N1834       N  0.78730158  0.79467123  0.14485024    -0.24400
C1835       C  0.71079246  0.78272996  0.28377037    -0.05400
N1836       N  0.81572867  0.80722299  0.22814407    -0.45500
N1837       N  0.71194946  0.66006151  0.13291050    -0.45800
C1838       C  0.69849145  0.81157667  0.27123093     0.43500
N1839       N  0.72578054  0.70561175  0.24979732     0.02400
N1840       N  0.72306351  0.79252836  0.14813214    -0.24500
N1841       N  0.79203607  0.76883665  0.25120065    -0.25000
N1842       N  0.72224777  0.77212946  0.12160948     0.02100
H1843       H  0.69254680  0.82767252  0.16421075     0.07900
H1844       H  0.70504652  0.70569210  0.06196876     0.08000
N1845       N  0.72602288  0.68526388  0.22317321    -0.25000
N1846       N  0.79004339  0.70934632  0.11675867    -0.24600
N1847       N  0.72710844  0.79316707  0.22960511     0.02400
C1848       C  0.82094280  0.66750755  0.26716848     0.43800
C1849       C  0.80644710  0.81646274  0.13769938    -0.05900
N1850       N  0.72606622  0.70489315  0.11563318    -0.24600
H1851       H  0.81909486  0.72303905  0.07319000     0.08000
N1852       N  0.80730582  0.69287687  0.27907749    -0.45800
H1853       H  0.80981868  0.83621290  0.15445567     0.08000
C1854       C  0.68220826  0.79701952  0.11491485     0.43700
C1855       C  0.81687249  0.77046291  0.27117232    -0.05400
Co1856     Co  0.75734415  0.79320563  0.18725467     0.73800
N1857       N  0.80344365  0.78487229  0.08913385    -0.45600
C1858       C  0.68595174  0.68132011  0.25752951     0.43900
N1859       N  0.71024948  0.81654432  0.23789334    -0.45500
Co1860     Co  0.75599428  0.74067520  0.11678240     0.73900
C1861       C  0.70814089  0.69502202  0.08844076    -0.05900
C1862       C  0.80946703  0.66120870  0.23061055    -0.05400
N1863       N  0.72806740  0.77290776  0.25587731    -0.25000
N1864       N  0.81577585  0.67120259  0.13854800    -0.45700
H1865       H  0.69506096  0.65092009  0.20753184     0.07900
C1866       C  0.69860098  0.80957469  0.14578222    -0.05800
Cl1867     Cl  0.75768983  0.73897945  0.18487724    -0.48800
C1868       C  0.81743232  0.80981016  0.10111257     0.45700
H1869       H  0.70909861  0.77233795  0.31055220     0.07900
N1870       N  0.69799273  0.77387616  0.10112667    -0.45600
N1871       N  0.73053532  0.96044187  0.43867753    -0.35500
N1872       N  0.76051173  0.99433386  0.49693080    -0.56100
N1873       N  0.78822347  0.52460737  0.43641905    -0.35500
N1874       N  0.76423489  0.99147578  0.38190900    -0.56100
C1875       C  0.72169069  0.94531211  0.46892729     0.28100
C1876       C  0.72340103  0.94373500  0.40879827     0.28100
C1877       C  0.80369823  0.53334522  0.46664301     0.28000
C1878       C  0.80424725  0.53224037  0.40651749     0.28000
C1879       C  0.74082052  0.97967809  0.51798156     0.36700
C1880       C  0.77132007  0.51202651  0.51527777     0.36700
C1881       C  0.74600545  0.97553538  0.35961850     0.36700
C1882       C  0.77332605  0.50858858  0.35701553     0.36700
C1883       C  0.70852028  0.91877165  0.45812530    -0.20800
C1884       C  0.70953239  0.91778455  0.42040385    -0.20800
C1885       C  0.82966929  0.54698250  0.45570997    -0.20800
C1886       C  0.83002330  0.54630703  0.41794301    -0.20800
C1887       C  0.74169068  0.99058630  0.55378853    -0.21900
C1888       C  0.76072087  0.51014054  0.55095632    -0.21900
C1889       C  0.74948923  0.98487153  0.32351173    -0.21900
C1890       C  0.77022843  0.00744307  0.32404408    -0.21900
C1891       C  0.72338947  0.95543519  0.50589871    -0.17200
C1892       C  0.72717689  0.95197349  0.37132807    -0.17200
C1893       C  0.79572645  0.52852281  0.36913708    -0.17200
C1894       C  0.79455352  0.53078843  0.50379532    -0.17200
H1895       H  0.69866630  0.90195392  0.47548938     0.15700
H1896       H  0.70051208  0.89998879  0.40367034     0.15700
H1897       H  0.84658992  0.55673596  0.47306020     0.15700
H1898       H  0.84732141  0.55544719  0.40088909     0.15700
H1899       H  0.72891952  0.98308101  0.57713270     0.14000
H1900       H  0.76777349  0.52294254  0.57473203     0.14000
H1901       H  0.73837571  0.97622554  0.29930021     0.14000
H1902       H  0.77013357  0.51870798  0.29740847     0.14000
H1903       H  0.73913965  0.98177659  0.43836980     0.27200
H1904       H  0.76717653  0.51562969  0.43595822     0.27200
N1905       N  0.97330888  0.70889463  0.93626071    -0.35500
N1906       N  0.50484735  0.74389678  0.99699554    -0.56100
N1907       N  0.53763478  0.77566304  0.93953220    -0.35500
N1908       N  0.50373709  0.74530177  0.88187194    -0.56100
C1909       C  0.95793686  0.70020801  0.96634019     0.28100
C1910       C  0.95713458  0.70141825  0.90628248     0.28100
C1911       C  0.54730665  0.79021446  0.97001595     0.28000
C1912       C  0.54615926  0.79169957  0.90981354     0.28000
C1913       C  0.99130925  0.72033638  0.01510679     0.36700
C1914       C  0.52427971  0.75843246  0.01888489     0.36700
C1915       C  0.98786487  0.72510151  0.85698133     0.36700
C1916       C  0.52214260  0.76110855  0.85994064     0.36700
C1917       C  0.93177962  0.68682623  0.95525256    -0.20800
C1918       C  0.93128181  0.68753311  0.91749731    -0.20800
C1919       C  0.56251379  0.81561142  0.95951938    -0.20800
C1920       C  0.56179974  0.81655953  0.92176000    -0.20800
C1921       C  0.00222597  0.72168592  0.05080079    -0.21900
C1922       C  0.52105563  0.74919652  0.05509441    -0.21900
C1923       C  0.99685099  0.72871893  0.82078824    -0.21900
C1924       C  0.51816104  0.75229554  0.82361533    -0.21900
C1925       C  0.96749908  0.70238067  0.00342564    -0.17200
C1926       C  0.96566645  0.70501497  0.86903157    -0.17200
C1927       C  0.54161698  0.78409588  0.87214876    -0.17200
C1928       C  0.54396809  0.78087391  0.00707747    -0.17200
H1929       H  0.91489934  0.67710243  0.97245570     0.15700
H1930       H  0.91385890  0.67849231  0.90033453     0.15700
H1931       H  0.57323837  0.83182188  0.97717452     0.15700
H1932       H  0.57198024  0.83364823  0.90512050     0.15700
H1933       H  0.99501085  0.70896396  0.07441008     0.14000
H1934       H  0.53306739  0.75703662  0.07906376     0.14000
H1935       H  0.98897658  0.71666309  0.79682318     0.14000
H1936       H  0.52923256  0.76102009  0.79958363     0.14000
H1937       H  0.99444084  0.71763591  0.93588497     0.27200
H1938       H  0.52718330  0.75522922  0.93909813     0.27200
N1939       N  0.50866168  0.74776615  0.37126581    -0.35500
N1940       N  0.54219249  0.71687611  0.42928105    -0.56100
N1941       N  0.50458875  0.74533882  0.48585736    -0.35500
N1942       N  0.97300918  0.77717813  0.43546071    -0.56100
C1943       C  0.52891181  0.73333312  0.35019763     0.28100
C1944       C  0.99175596  0.76631846  0.35668287     0.28100
C1945       C  0.52567092  0.73224706  0.50748426     0.28000
C1946       C  0.99014795  0.76309319  0.51389229     0.28000
C1947       C  0.55335468  0.70243964  0.39948422     0.36700
C1948       C  0.55170911  0.70148015  0.45915799     0.36700
C1949       C  0.95853331  0.78796115  0.40551849     0.36700
C1950       C  0.95780285  0.78691176  0.46530100     0.36700
C1951       C  0.52590978  0.74267221  0.31395020    -0.20800
C1952       C  0.00290787  0.76576074  0.32108222    -0.20800
C1953       C  0.52350132  0.74406457  0.54275088    -0.20800
C1954       C  0.00131120  0.76113690  0.54949164    -0.20800
C1955       C  0.57040117  0.67807673  0.41052747    -0.21900
C1956       C  0.56934209  0.67742474  0.44816056    -0.21900
C1957       C  0.93422385  0.80495561  0.41639842    -0.21900
C1958       C  0.93379201  0.80438168  0.45407333    -0.21900
C1959       C  0.54897950  0.71087662  0.36229761    -0.17200
C1960       C  0.96754574  0.78426325  0.36845210    -0.17200
C1961       C  0.96609456  0.78207585  0.50261839    -0.17200
C1962       C  0.54613913  0.70936058  0.49638624    -0.17200
H1963       H  0.53846372  0.73500817  0.29032129     0.15700
H1964       H  0.99548061  0.77897644  0.29779412     0.15700
H1965       H  0.53695709  0.73817054  0.56644491     0.15700
H1966       H  0.99381179  0.77353357  0.57342327     0.15700
H1967       H  0.58230610  0.66226474  0.39328193     0.14000
H1968       H  0.58041833  0.66101109  0.46539379     0.14000
H1969       H  0.91862973  0.81700294  0.39905782     0.14000
H1970       H  0.91776311  0.81602327  0.47110628     0.14000
H1971       H  0.50493895  0.74414109  0.39887499     0.27200
H1972       H  0.49996518  0.73968891  0.45878976     0.27200
N1973       N  0.75574108  0.98402340  0.86738721    -0.35500
N1974       N  0.78954060  0.95138618  0.92333915    -0.56100
N1975       N  0.75510678  0.98103387  0.98190662    -0.35500
N1976       N  0.72513478  0.52014376  0.92933948    -0.56100
C1977       C  0.77644111  0.97082085  0.84578532     0.28100
C1978       C  0.73871895  0.50421062  0.85013152     0.28100
C1979       C  0.77646600  0.96737145  0.00245987     0.28000
C1980       C  0.74010484  0.50291919  0.00739390     0.28000
C1981       C  0.80049909  0.93768717  0.89290986     0.36700
C1982       C  0.80083188  0.93653903  0.95270342     0.36700
C1983       C  0.71416261  0.53491391  0.89969216     0.36700
C1984       C  0.71432709  0.53432951  0.95945451     0.36700
C1985       C  0.77557707  0.98368687  0.81102515    -0.20800
C1986       C  0.74131855  0.49481809  0.81381277    -0.20800
C1987       C  0.77512845  0.97853048  0.03814158    -0.20800
C1988       C  0.74220095  0.49072967  0.04239776    -0.20800
C1989       C  0.81912925  0.91425215  0.90295187    -0.21900
C1990       C  0.81939000  0.91352138  0.94068500    -0.21900
C1991       C  0.69602548  0.55838345  0.91104999    -0.21900
C1992       C  0.69611525  0.55803345  0.94874701    -0.21900
C1993       C  0.79580562  0.94720666  0.85619330    -0.17200
C1994       C  0.71916719  0.52714085  0.86236605    -0.17200
C1995       C  0.71925072  0.52555631  0.99652090    -0.17200
C1996       C  0.79636934  0.94442143  0.99022081    -0.17200
H1997       H  0.78910158  0.97795177  0.78742390     0.15700
H1998       H  0.72885790  0.50284203  0.79021816     0.15700
H1999       H  0.78896268  0.97207779  0.06127423     0.15700
H2000       H  0.72845867  0.49609103  0.06593011     0.15700
H2001       H  0.83166843  0.89951654  0.88498098     0.14000
H2002       H  0.83231745  0.89806011  0.95726207     0.14000
H2003       H  0.68378125  0.57406250  0.89397279     0.14000
H2004       H  0.68392057  0.57345948  0.96619628     0.14000
H2005       H  0.75038837  0.97793277  0.89397505     0.27200
H2006       H  0.74987298  0.97598933  0.95484661     0.27200
C2007       C  0.82465169  0.89785069  0.78165353     0.81300
N2008       N  0.85039608  0.91135709  0.77425540    -0.77000
C2009       C  0.85911425  0.93569935  0.79340310     0.83700
N2010       N  0.84133179  0.94726100  0.81994905    -0.77000
C2011       C  0.81497866  0.93414341  0.82734891     0.83800
N2012       N  0.80674178  0.90905616  0.80860002    -0.78700
C2013       C  0.90380202  0.67726269  0.81196098     0.81300
N2014       N  0.92233484  0.69633618  0.82964762    -0.77000
C2015       C  0.94920160  0.68660142  0.84197969     0.83700
N2016       N  0.95754407  0.65758204  0.83625364    -0.77000
C2017       C  0.93933563  0.63845561  0.81797515     0.83800
N2018       N  0.91241152  0.64842718  0.80609360    -0.78700
C2019       C  0.69852212  0.58649798  0.79573191     0.81300
N2020       N  0.71435408  0.56985545  0.82024838    -0.77000
C2021       C  0.70265273  0.54432696  0.83417685     0.83700
N2022       N  0.67487125  0.53587434  0.82419380    -0.77000
C2023       C  0.65913433  0.55263802  0.79971535     0.83800
N2024       N  0.67113484  0.57771595  0.78574422    -0.78700
C2025       C  0.57079947  0.84766986  0.81708812     0.81300
N2026       N  0.55159342  0.82974878  0.83557648    -0.77000
C2027       C  0.55954417  0.80119472  0.84496108     0.83700
N2028       N  0.58682927  0.79064135  0.83538958    -0.77000
C2029       C  0.60616569  0.80829431  0.81695866     0.83800
N2030       N  0.59808500  0.83679526  0.80802024    -0.78700
C2031       C  0.57242676  0.64576279  0.55363267     0.81300
N2032       N  0.60128000  0.65313245  0.55892492    -0.77000
C2033       C  0.61164183  0.67995356  0.54714331     0.83700
N2034       N  0.59289234  0.69933295  0.52958022    -0.77000
C2035       C  0.56387887  0.69232662  0.52420937     0.83800
N2036       N  0.55380757  0.66547321  0.53639436    -0.78700
C2037       C  0.81946679  0.59293262  0.56455877     0.81300
N2038       N  0.84578313  0.58180689  0.57692900    -0.77000
C2039       C  0.85510543  0.55392956  0.56693256     0.83700
N2040       N  0.83789046  0.53709680  0.54430653    -0.77000
C2041       C  0.81141321  0.54789031  0.53191912     0.83800
N2042       N  0.80242642  0.57595711  0.54176843    -0.78700
C2043       C  0.68162584  0.79852709  0.77117264     0.43500
N2044       N  0.69957254  0.77008410  0.72891071     0.02400
C2045       C  0.83506362  0.69550134  0.72898065    -0.05500
H2046       H  0.83294262  0.81503287  0.71062120     0.07900
C2047       C  0.79784500  0.79551468  0.58836333    -0.05800
Co2048     Co  0.75603053  0.73966604  0.75118444     0.74200
N2049       N  0.80464794  0.77794541  0.72440524    -0.25000
Co2050     Co  0.80842118  0.74515122  0.68214817     0.74100
C2051       C  0.82604122  0.80755381  0.60217782     0.43600
N2052       N  0.72156755  0.77859261  0.62091680     0.02000
N2053       N  0.80764779  0.77759852  0.64215110     0.02100
N2054       N  0.80223488  0.69239485  0.77547193    -0.45800
H2055       H  0.72155861  0.78921166  0.80941725     0.07900
N2056       N  0.78504345  0.77450412  0.75106906     0.02400
N2057       N  0.80761412  0.71197953  0.64010977     0.02200
C2058       C  0.81415308  0.67158740  0.60856637     0.43800
N2059       N  0.70124897  0.77706034  0.64712224    -0.24400
C2060       C  0.72668640  0.67945822  0.76557146    -0.05400
N2061       N  0.67616605  0.78654893  0.73781777    -0.45500
N2062       N  0.82478662  0.68776976  0.63726439    -0.45800
C2063       C  0.70267350  0.66266393  0.74916832     0.43500
N2064       N  0.79221412  0.71016552  0.74878311     0.02400
N2065       N  0.70095086  0.71183714  0.64110497    -0.24500
N2066       N  0.71991642  0.76938181  0.75496938    -0.25000
N2067       N  0.71947748  0.71374121  0.61333692     0.02100
H2068       H  0.65989699  0.68885079  0.64905973     0.07900
H2069       H  0.77354389  0.68184170  0.57180553     0.08000
N2070       N  0.81144280  0.71270908  0.72189106    -0.25000
N2071       N  0.78805293  0.77723918  0.61520577    -0.24600
N2072       N  0.70517943  0.70504577  0.72210292     0.02400
C2073       C  0.80232046  0.81777402  0.76161018     0.43800
C2074       C  0.68472155  0.80222784  0.64588685    -0.05900
N2075       N  0.78618334  0.71226893  0.61506894    -0.24600
H2076       H  0.78802170  0.79782127  0.56127820     0.08000
N2077       N  0.78303150  0.79756754  0.77365084    -0.45800
H2078       H  0.66698523  0.80813939  0.66456821     0.08000
C2079       C  0.68588236  0.68284614  0.59556634     0.43700
C2080       C  0.71059301  0.78688730  0.78302774    -0.05400
Co2081     Co  0.70109903  0.74098054  0.68476642     0.73800
N2082       N  0.72029981  0.80381556  0.60201684    -0.45600
C2083       C  0.82893477  0.68177022  0.76425309     0.43900
N2084       N  0.69009386  0.67972373  0.72248023    -0.45500
Co2085     Co  0.75371211  0.74552302  0.61517031     0.73900
C2086       C  0.78859530  0.68785574  0.59379584    -0.05900
C2087       C  0.81699298  0.80503121  0.72888329    -0.05400
N2088       N  0.72666276  0.70509222  0.74695931    -0.25000
N2089       N  0.83063691  0.79474793  0.63518430    -0.45700
H2090       H  0.85547971  0.69543025  0.71346186     0.07900
C2091       C  0.67951753  0.69261931  0.63275692    -0.05800
Cl2092     Cl  0.75482286  0.74285913  0.68325309    -0.48800
C2093       C  0.69761533  0.81978426  0.61615819     0.43700
H2094       H  0.74226894  0.67328704  0.78699885     0.07900
N2095       N  0.71053897  0.69750898  0.58461699    -0.45600
C2096       C  0.90263960  0.81162984  0.55726705     0.81300
N2097       N  0.91322486  0.83876778  0.56803669    -0.77000
C2098       C  0.94168271  0.84644887  0.56034423     0.83700
N2099       N  0.95949337  0.82690150  0.54168221    -0.77000
C2100       C  0.94912773  0.79988055  0.53044774     0.83800
N2101       N  0.92070061  0.79237774  0.53846550    -0.78700
C2102       C  0.66106679  0.93440684  0.56604722     0.81300
N2103       N  0.67851630  0.95031678  0.54308190    -0.77000
C2104       C  0.70562618  0.93936109  0.53340031     0.83700
N2105       N  0.71501831  0.91225090  0.54623928    -0.77000
C2106       C  0.69751027  0.89635586  0.56920604     0.83800
N2107       N  0.67073724  0.90758689  0.57882723    -0.78700
C2108       C  0.93727689  0.94305787  0.75694423     0.43500
N2109       N  0.97802342  0.94797510  0.72838786     0.02400
C2110       C  0.56644611  0.56680568  0.72345785    -0.05500
H2111       H  0.95359134  0.59038063  0.71280802     0.07900
C2112       C  0.94900336  0.52193308  0.59695504    -0.05800
Co2113     Co  0.51031671  0.49864183  0.75409914     0.74200
N2114       N  0.97707460  0.54906887  0.72289239    -0.25000
Co2115     Co  0.50779145  0.54971280  0.68197172     0.74100
C2116       C  0.93217186  0.54726730  0.61182272     0.43600
N2117       N  0.98071643  0.96017902  0.61899462     0.02000
N2118       N  0.97322726  0.54325940  0.64139244     0.02100
N2119       N  0.56685880  0.53240766  0.76934167    -0.45800
H2120       H  0.94595100  0.98415031  0.79382864     0.07900
N2121       N  0.97865841  0.53093132  0.75136168     0.02400
N2122       N  0.53820535  0.54975846  0.63978355     0.02200
C2123       C  0.56565340  0.56814332  0.59746271     0.43800
N2124       N  0.98110265  0.94180420  0.64724515    -0.24400
C2125       C  0.55853948  0.95405462  0.78080320    -0.05400
N2126       N  0.95402275  0.93139386  0.72975870    -0.45500
N2127       N  0.55337101  0.57370160  0.63047143    -0.45800
C2128       C  0.56929111  0.92425537  0.76940738     0.43500
N2129       N  0.54260588  0.53071980  0.74902975     0.02400
N2130       N  0.54465525  0.94359833  0.64447219    -0.24500
N2131       N  0.97766764  0.96986084  0.75300240    -0.25000
N2132       N  0.54474728  0.96348891  0.61747229     0.02100
H2133       H  0.57576205  0.90925097  0.66122367     0.07900
H2134       H  0.55832233  0.52700271  0.56004459     0.08000
N2135       N  0.54182563  0.55032849  0.72170899    -0.25000
N2136       N  0.97400044  0.52120171  0.61700023    -0.24600
N2137       N  0.54269397  0.94361626  0.72616465     0.02400
C2138       C  0.94688802  0.56489788  0.76671242     0.43800
C2139       C  0.96354260  0.91860805  0.64023083    -0.05900
N2140       N  0.53872571  0.52864739  0.61437415    -0.24600
H2141       H  0.94315221  0.50619582  0.57550149     0.08000
N2142       N  0.96163129  0.54027407  0.77901276    -0.45800
H2143       H  0.96183498  0.89875934  0.65707219     0.08000
C2144       C  0.58501758  0.93886446  0.61103498     0.43700
C2145       C  0.95273551  0.96851443  0.77261101    -0.05400
Co2146     Co  0.01156585  0.94468845  0.68910843     0.73800
N2147       N  0.96392041  0.94992959  0.59156213    -0.45600
C2148       C  0.58278771  0.55471707  0.75487638     0.43900
N2149       N  0.55797144  0.91942107  0.73565694    -0.45500
Co2150     Co  0.50948348  0.49236248  0.61795051     0.73900
C2151       C  0.55580404  0.53816179  0.58635024    -0.05900
C2152       C  0.95739416  0.57084782  0.72980468    -0.05400
N2153       N  0.54226672  0.96431846  0.75209096    -0.25000
N2154       N  0.94851740  0.55943260  0.63916979    -0.45700
H2155       H  0.57283528  0.58386496  0.70404000     0.07900
C2156       C  0.56920910  0.92677924  0.64228476    -0.05800
Cl2157     Cl  0.50991269  0.49554499  0.68598059    -0.48800
C2158       C  0.95188111  0.92398920  0.60355072     0.43700
H2159       H  0.55971258  0.96445261  0.80771006     0.07900
N2160       N  0.56881084  0.96161296  0.59680460    -0.45600
C2161       C  0.63126767  0.94528509  0.57607367    -0.15400
C2162       C  0.61463360  0.92950633  0.59949940    -0.30500
H2163       H  0.62297290  0.96612129  0.56437090     0.13700
H2164       H  0.62324047  0.90908088  0.61191365     0.14200
C2165       C  0.95458897  0.87413345  0.57575267    -0.15400
C2166       C  0.93951353  0.90011592  0.57988794    -0.30500
H2167       H  0.97740685  0.87272401  0.58535956     0.13700
H2168       H  0.91728424  0.90277065  0.56876535     0.14200
C2169       C  0.68941032  0.85027764  0.60475635    -0.15400
C2170       C  0.70658465  0.86633599  0.58198947    -0.30500
H2171       H  0.66888343  0.85963221  0.61550889     0.13700
H2172       H  0.72742065  0.85705507  0.57204196     0.14200
C2173       C  0.85108157  0.81984917  0.58094040    -0.15400
C2174       C  0.87278858  0.80144196  0.56867442    -0.30500
H2175       H  0.85406673  0.84393316  0.58075364     0.13700
H2176       H  0.86916341  0.77741746  0.56918926     0.14200
C2177       C  0.80963619  0.62362537  0.57459829    -0.15400
C2178       C  0.82477829  0.64125460  0.59818093    -0.30500
H2179       H  0.78906655  0.63170829  0.56244548     0.13700
H2180       H  0.84502209  0.63302151  0.61105607     0.14200
C2181       C  0.88449754  0.54244724  0.57860991    -0.15400
C2182       C  0.90234907  0.55801319  0.60123514    -0.30500
H2183       H  0.89170256  0.52085345  0.56791968     0.13700
H2184       H  0.89490448  0.57925795  0.61271671     0.14200
C2185       C  0.56059928  0.61769967  0.56918499    -0.15400
C2186       C  0.57696414  0.59254540  0.57405404    -0.30500
H2187       H  0.53768389  0.61810019  0.57829672     0.13700
H2188       H  0.59932089  0.59084026  0.56326877     0.14200
C2189       C  0.64224599  0.68941692  0.55629931    -0.15400
C2190       C  0.66251820  0.67076461  0.57140602    -0.30500
H2191       H  0.64702598  0.71318904  0.55479777     0.13700
H2192       H  0.65748029  0.64717605  0.57436314     0.14200
C2193       C  0.65789306  0.81184967  0.79394100    -0.15400
C2194       C  0.63439067  0.79527846  0.80344183    -0.30500
H2195       H  0.65806339  0.83580350  0.79909154     0.13700
H2196       H  0.63524165  0.77119783  0.79902975     0.14200
C2197       C  0.56091419  0.87769893  0.80393298    -0.15400
C2198       C  0.57980840  0.89907924  0.79269906    -0.30500
H2199       H  0.53721673  0.88161191  0.80099660     0.13700
H2200       H  0.60354989  0.89573665  0.79568574     0.14200
C2201       C  0.70964358  0.61525556  0.78239907    -0.15400
C2202       C  0.69367613  0.63227975  0.75881147    -0.30500
H2203       H  0.73054624  0.62307632  0.79349596     0.13700
H2204       H  0.67311247  0.62417429  0.74698419     0.14200
C2205       C  0.62865451  0.54482206  0.78951968    -0.15400
C2206       C  0.61310844  0.56185327  0.76561849    -0.30500
H2207       H  0.61883567  0.52512911  0.80181439     0.13700
H2208       H  0.62298272  0.58124319  0.75271513     0.14200
C2209       C  0.95008027  0.60800268  0.80811268    -0.15400
C2210       C  0.93308888  0.58828532  0.78978254    -0.30500
H2211       H  0.97351898  0.60305838  0.81195869     0.13700
H2212       H  0.90999314  0.59365475  0.78421432     0.14200
C2213       C  0.87568990  0.68864934  0.79650343    -0.15400
C2214       C  0.85250103  0.67091009  0.78904944    -0.30500
H2215       H  0.87463106  0.71218136  0.78894322     0.13700
H2216       H  0.85245554  0.64765099  0.79766118     0.14200
C2217       C  0.80393962  0.84770946  0.77804423    -0.15400
C2218       C  0.81880114  0.86972347  0.76224210    -0.30500
H2219       H  0.79312352  0.85139821  0.80439753     0.13700
H2220       H  0.83024091  0.86567696  0.73638758     0.14200
C2221       C  0.88869966  0.94774451  0.78692238    -0.15400
C2222       C  0.90741530  0.93301658  0.76447978    -0.30500
H2223       H  0.89535034  0.96801318  0.80116871     0.13700
H2224       H  0.90067445  0.91273111  0.75030524     0.14200
C2225       C  0.68739037  0.64047885  0.07713617    -0.15400
C2226       C  0.70363574  0.61518919  0.07285649    -0.30500
H2227       H  0.66545360  0.64251292  0.06496409     0.13700
H2228       H  0.72631224  0.61450823  0.08304606     0.14200
C2229       C  0.65581590  0.67401072  0.26878251    -0.15400
C2230       C  0.63983752  0.69178922  0.29129171    -0.30500
H2231       H  0.64624006  0.65395455  0.25689128     0.13700
H2232       H  0.64935415  0.71208668  0.30265023     0.14200
C2233       C  0.81496840  0.62476441  0.30823837    -0.15400
C2234       C  0.83322659  0.64379125  0.29094730    -0.30500
H2235       H  0.79163431  0.63058905  0.31092738     0.13700
H2236       H  0.85631502  0.63767463  0.28678769     0.14200
C2237       C  0.63609045  0.79032561  0.07920656    -0.15400
C2238       C  0.65255934  0.80621069  0.10309412    -0.30500
H2239       H  0.64455202  0.76958113  0.06738233     0.13700
H2240       H  0.64386681  0.82662222  0.11549354     0.14200
C2241       C  0.60099402  0.56428163  0.06611068    -0.15400
C2242       C  0.62188169  0.54464679  0.05437899    -0.30500
H2243       H  0.60582243  0.58804729  0.06634585     0.13700
H2244       H  0.61729321  0.52081398  0.05511368     0.14200
C2245       C  0.55670725  0.62312167  0.28183106    -0.15400
C2246       C  0.57134859  0.60615844  0.25709451    -0.30500
H2247       H  0.53582296  0.61571981  0.29319583     0.13700
H2248       H  0.59183383  0.61389354  0.24492184     0.14200
C2249       C  0.88562422  0.54148074  0.29550720    -0.15400
C2250       C  0.90967981  0.55851936  0.29020815    -0.30500
H2251       H  0.88555710  0.51844713  0.28574541     0.13700
H2252       H  0.91081932  0.58099029  0.30158426     0.14200
C2253       C  0.57813581  0.88508467  0.10834752    -0.15400
C2254       C  0.56097544  0.86902267  0.08524613    -0.30500
H2255       H  0.59857338  0.87575969  0.11953461     0.13700
H2256       H  0.54025327  0.87837322  0.07489359     0.14200
C2257       C  0.93840435  0.59301118  0.09828018    -0.15400
C2258       C  0.95426016  0.61076323  0.07585817    -0.30500
H2259       H  0.91777925  0.60100696  0.11027177     0.13700
H2260       H  0.97520810  0.60297307  0.06463417     0.14200
C2261       C  0.87786677  0.68915827  0.07705306    -0.15400
C2262       C  0.86077539  0.67278032  0.09937482    -0.30500
H2263       H  0.86993713  0.71046607  0.06636098     0.13700
H2264       H  0.86895701  0.65183833  0.11088384     0.14200
C2265       C  0.63540729  0.94201848  0.29917317    -0.15400
C2266       C  0.60920665  0.92785746  0.29759196    -0.30500
H2267       H  0.63716443  0.96433262  0.28754373     0.13700
H2268       H  0.60617857  0.90657811  0.31139658     0.14200
C2269       C  0.70587074  0.85726213  0.30716090    -0.15400
C2270       C  0.68700705  0.83676827  0.29357232    -0.30500
H2271       H  0.72946691  0.85212160  0.30747641     0.13700
H2272       H  0.66340402  0.84160244  0.29240378     0.14200
C2273       C  0.81551315  0.85046355  0.05628571    -0.15400
C2274       C  0.83186919  0.83239079  0.07803252    -0.30500
H2275       H  0.79266949  0.84459878  0.05030046     0.13700
H2276       H  0.85410802  0.83892109  0.08595641     0.14200
C2277       C  0.88590444  0.93369574  0.06756635    -0.15400
C2278       C  0.91147877  0.91835320  0.07267263    -0.30500
H2279       H  0.88422709  0.95670946  0.07722080     0.13700
H2280       H  0.91449636  0.89614937  0.06094255     0.14200
C2281       C  0.87900684  0.79259567  0.29092963    -0.15400
C2282       C  0.86175463  0.80707245  0.26637770    -0.30500
H2283       H  0.87192096  0.77158110  0.30279824     0.13700
H2284       H  0.86907926  0.82775745  0.25383619     0.14200
C2285       C  0.95146199  0.87367693  0.29273832    -0.15400
C2286       C  0.93650673  0.88896582  0.26674950    -0.30500
H2287       H  0.97123046  0.88311083  0.30517550     0.13700
H2288       H  0.91710993  0.87941066  0.25358045     0.14200
loop_ 
_geom_bond_atom_site_label_1 
_geom_bond_atom_site_label_2 
_geom_bond_distance 
_geom_bond_site_symmetry_2 
_ccdc_geom_bond_type 
C1            N2   1.359       .  A
C1            N6   1.349       .  A
C1          C565   1.470       .  S
N2            C3   1.362       .  A
C3            N4   1.366       .  A
C3          C244   1.489       .  S
N4            C5   1.365       .  A
C5            N6   1.347       .  A
C5          C569   1.468       .  S
C7            N8   1.363       .  A
C7           N12   1.366       .  A
C7          C561   1.493       .  S
N8            C9   1.361       .  A
C9           N10   1.360       .  A
C9          C557   1.478       .  S
N10          C11   1.359       .  A
C11          N12   1.365       .  A
C11         C280   1.495   1_554  S
C13          N14   1.359       .  A
C13          N18   1.366       .  A
C13         C553   1.489       .  S
N14          C15   1.357       .  A
C15          N16   1.360       .  A
C15         C549   1.477       .  S
N16          C17   1.361       .  A
C17          N18   1.367       .  A
C17         C176   1.496       .  S
C19          N20   1.352       .  A
C19          N24   1.360       .  A
C19         C542   1.473       .  S
N20          C21   1.354       .  A
C21          N22   1.359       .  A
C21         C545   1.470       .  S
N22          C23   1.360       .  A
C23          N24   1.361       .  A
C23         C209   1.483       .  S
C25          N43   1.345       .  A
C25         C550   1.473       .  S
C25          C62   1.464       .  S
N26          N43   1.322       .  A
N26          N48   1.315       .  A
N26         Co63   2.059       .  S
C27          N52   1.335       .  A
C27          C65   1.450       .  S
C27          H72   1.082       .  S
H28          C69   1.081       .  S
C29          N53   1.352       .  A
C29          C33   1.472       .  S
C29        H1202   1.081       .  S
Co30         N48   2.093       .  S
Co30         N38   2.058   1_455  S
Co30        N642   2.068       .  S
Co30       N1762   2.088   1_455  S
Co30        Cl74   2.471       .  S
N31          C69   1.347       .  A
N31        N1182   1.324       .  A
N31         Co32   2.127       .  S
Co32         N35   2.058       .  S
Co32        N624   2.054       .  S
Co32        N611   2.124       .  S
Co32      Cl1218   2.419       .  S
C33          N71   1.343       .  A
C33         C562   1.483       .  S
N34          N41   1.326       .  A
N34          N64   1.318       .  A
N34         Co67   2.054       .  S
N35          N53   1.317       .  A
N35          N71   1.322       .  A
N36          C65   1.356       .  A
N36          N46   1.331       .  A
H37          C62   1.081       .  S
N38          N59   1.320       .  A
N38        N1175   1.324       .  A
N39          N57   1.325       .  A
N39          N44   1.328       .  A
N39        Co604   2.127   1_545  S
C40          N44   1.356       .  A
C40         C541   1.474       .  S
C40          C68   1.453       .  S
N41          C56   1.340       .  A
N41         Co63   2.109       .  S
C42          N70   1.338       .  A
C42          C45   1.457       .  S
C42          H76   1.081       .  S
C45          N66   1.351       .  A
C45         C530   1.471       .  S
N46          N52   1.315       .  A
N46       Co1746   2.097   1_545  S
N47          C73   1.334       .  A
N47          N49   1.315       .  A
N47        Co635   2.052   1_545  S
N48          C62   1.347       .  A
N49          N77   1.330       .  A
N49        Co639   2.101   1_545  S
H50          C73   1.082       .  S
H51          C68   1.081       .  S
N52        Co604   2.054   1_545  S
N53       Co1211   2.114       .  S
N54          N66   1.325       .  A
N54          N70   1.323       .  A
N54        Co635   2.103   1_545  S
C55        N1203   1.339       .  A
C55         C570   1.473       .  S
C55          C69   1.473       .  S
C56          C75   1.458       .  S
C56          H60   1.081       .  S
N57          C68   1.333       .  A
N57       Co1783   2.062   1_545  S
H58        C1173   1.081       .  S
N59        C1199   1.340       .  A
C61          N77   1.356       .  A
C61         C525   1.473       .  S
C61          C73   1.449       .  S
Co63        N619   2.044       .  S
Co63        N626   2.106       .  S
Co63        Cl74   2.425       .  S
N64          C75   1.342       .  A
C65         C534   1.477       .  S
Co67        N621   2.112       .  S
Co67       N1197   2.114   1_455  S
Co67       N1773   2.057   1_455  S
Co67        Cl74   2.479       .  S
N70        Co602   2.078   1_545  S
Cl74      Co1176   2.420   1_455  S
C75         C537   1.456       .  S
C78          N79   1.362       .  A
C78          N83   1.344       .  A
C78         C521   1.461       .  S
N79          C80   1.365       .  A
C80          N81   1.361       .  A
C80         C212   1.480       .  S
N81          C82   1.355       .  A
C82          N83   1.348       .  A
C82         C538   1.465       .  S
C84          N85   1.361       .  A
C84          N89   1.359       .  A
C84         C533   1.475       .  S
N85          C86   1.360       .  A
C86          N87   1.360       .  A
C86         C177   1.483       .  S
N87          C88   1.359       .  A
C88          N89   1.360       .  A
C88         C517   1.481       .  S
C90          N91   1.360       .  A
C90          N95   1.353       .  A
C90         C529   1.476       .  S
N91          C92   1.362       .  A
C92          N93   1.363       .  A
C92         C243   1.485       .  S
N93          C94   1.360       .  A
C94          N95   1.353       .  A
C94         C514   1.475       .  S
C96          N97   1.360       .  A
C96         N101   1.358       .  A
C96         C510   1.477       .  S
N97          C98   1.360       .  A
C98          N99   1.365       .  A
C98         C279   1.492   1_554  S
N99         C100   1.363       .  A
C100        N101   1.359       .  A
C100        C526   1.483       .  S
C102        N120   1.354       .  A
C102        C566   1.467       .  S
C102        C139   1.452       .  S
N103        N120   1.326       .  A
N103        N125   1.324       .  A
N103       Co140   2.120       .  S
C104        N129   1.344       .  A
C104        C142   1.464       .  S
C104        H149   1.081       .  S
H105        C146   1.082       .  S
C106        N130   1.334       .  A
C106        C110   1.454       .  S
C106        H135   1.081       .  S
Co107       N125   2.055       .  S
Co107       N115   2.101       .  S
Co107       N147   2.093       .  S
Co107       N123   2.061       .  S
Co107      Cl151   2.474       .  S
N108        C146   1.333       .  A
N108        N115   1.314       .  A
N108       Co109   2.047       .  S
Co109       N112   2.106       .  S
Co109       N129   2.120       .  S
Co109       N116   2.057       .  S
Co109      Cl151   2.427       .  S
C110        N148   1.351       .  A
C110        C546   1.466       .  S
N111        N118   1.315       .  A
N111        N141   1.333       .  A
N111       Co144   2.105       .  S
N112        N130   1.323       .  A
N112        N148   1.325       .  A
N113        C142   1.343       .  A
N113        N123   1.320       .  A
H114        C139   1.081       .  S
N115        N136   1.331       .  A
N116        N134   1.316       .  A
N116        N121   1.322       .  A
C117        N121   1.344       .  A
C117        C509   1.474       .  S
C117        C145   1.464       .  S
N118        C133   1.334       .  A
N118       Co140   2.054       .  S
C119        N147   1.348       .  A
C119        C122   1.467       .  S
C119        H153   1.081       .  S
C122        N143   1.344       .  A
C122        C554   1.478       .  S
N123        N129   1.326       .  A
N124        C150   1.344       .  A
N124        N126   1.325       .  A
N124       Co140   2.118       .  S
N125        C139   1.332       .  A
N126        N154   1.320       .  A
N126       Co144   2.056       .  S
H127        C150   1.081       .  S
H128        C145   1.081       .  S
N130       Co144   2.064       .  S
N131        N143   1.322       .  A
N131        N147   1.316       .  A
N131       Co140   2.060       .  S
C132        N136   1.357       .  A
C132        C518   1.471       .  S
C132        C146   1.447       .  S
C133        C152   1.449       .  S
C133        H137   1.082       .  S
N134        C145   1.348       .  A
N134       Co144   2.101       .  S
C138        N154   1.339       .  A
C138        C522   1.467       .  S
C138        C150   1.470       .  S
Co140      Cl151   2.419       .  S
N141        C152   1.359       .  A
C142        C513   1.469       .  S
Co144      Cl151   2.472       .  S
C152        C558   1.482       .  S
N155        C160   1.356       .  A
N155        C159   1.355       .  A
N155        H187   1.032       .  S
N156        C163   1.352       .  A
N156        C736   1.352       .  A
N157        C162   1.352       .  A
N157        C161   1.356       .  A
N157        H188   1.034       .  S
N158        C165   1.358       .  A
N158        C738   1.356       .  A
C159        C167   1.387       .  A
C159        C175   1.421       .  A
C160        C176   1.423       .  A
C160        C168   1.389       .  A
C161        C169   1.386       .  A
C161        C178   1.416       .  A
C162        C177   1.419       .  A
C162        C170   1.390       .  A
C163        C175   1.417       .  A
C163        C171   1.387       .  A
C164        N728   1.353   1_545  A
C164        C178   1.413       .  A
C164        C172   1.385       .  A
C165        C173   1.387       .  A
C165        C176   1.427       .  A
C166        N730   1.355   1_545  A
C166        C177   1.424       .  A
C166        C746   1.387       .  A
C167        H179   1.082       .  S
C167        C168   1.372       .  A
C168        H180   1.081       .  S
C169        H181   1.082       .  S
C169        C170   1.371       .  A
C170        H182   1.082       .  S
C171        H183   1.082       .  S
C171        C744   1.376       .  A
C172        H184   1.082       .  S
C172        C743   1.375   1_545  A
C173        H185   1.082       .  S
C173        C174   1.382       .  A
C174        H758   1.082       .  S
C174        C738   1.386       .  A
C175        C388   1.481       .  S
C178        C325   1.483       .  S
H186        C746   1.082       .  S
N189        C194   1.354       .  A
N189        C193   1.357       .  A
N189        H221   1.034       .  S
N190        C198   1.349   1_556  A
N190       C1341   1.350   1_456  A
N191        C196   1.355       .  A
N191        C195   1.356       .  A
N191        H222   1.031       .  S
N192        C200   1.356       .  A
N192       C1343   1.356   1_455  A
C193        C201   1.386       .  A
C193        C209   1.418   1_556  A
C194        C210   1.421       .  A
C194        C202   1.389       .  A
C195        C203   1.387       .  A
C195        C212   1.422   1_556  A
C196        C211   1.423       .  A
C196        C204   1.389       .  A
C197       N1334   1.352       .  A
C197        C209   1.413       .  A
C197        C205   1.385       .  A
C198        C212   1.414       .  A
C198        C206   1.388       .  A
C199       N1336   1.356       .  A
C199        C207   1.386       .  A
C199        C210   1.424       .  A
C200        C208   1.387       .  A
C200        C211   1.425       .  A
C201        H213   1.082       .  S
C201        C202   1.372       .  A
C202        H214   1.082       .  S
C203        H215   1.082       .  S
C203        C204   1.373       .  A
C204        H216   1.081       .  S
C205        H217   1.082       .  S
C205       C1350   1.373       .  A
C206        H218   1.082       .  S
C206       C1349   1.372       .  A
C207        H219   1.082       .  S
C207       C1352   1.381       .  A
C208        H220   1.082       .  S
C208       C1351   1.382   1_455  A
C210        C299   1.489       .  S
C211        C311   1.491       .  S
N223        C227   1.356       .  A
N223       C1372   1.356   1_455  A
N223        H255   1.034       .  S
N224        C231   1.354       .  A
N224        C232   1.354       .  A
N225        C229   1.361       .  A
N225       C1374   1.358   1_455  A
N225        H256   1.029       .  S
N226        C233   1.357       .  A
N226        C234   1.355       .  A
C227        C235   1.388       .  A
C227        C243   1.422       .  A
C228       N1367   1.355       .  A
C228        C244   1.420       .  A
C228        C236   1.387       .  A
C229        C237   1.387       .  A
C229        C246   1.433       .  A
C230       N1369   1.358       .  A
C230        C245   1.433       .  A
C230        C238   1.388       .  A
C231        C243   1.419       .  A
C231        C239   1.386       .  A
C232        C246   1.423       .  A
C232        C240   1.389       .  A
C233        C241   1.385       .  A
C233        C244   1.420       .  A
C234        C242   1.390       .  A
C234        C245   1.426       .  A
C235        H247   1.082       .  S
C235       C1380   1.379   1_455  A
C236        H248   1.082       .  S
C236       C1379   1.376       .  A
C237        H249   1.082       .  S
C237       C1382   1.385   1_455  A
C238        H250   1.082       .  S
C238       C1381   1.385       .  A
C239        H251   1.082       .  S
C239        C240   1.368       .  A
C240        H252   1.082       .  S
C241        H253   1.082       .  S
C241        C242   1.371       .  A
C242        H254   1.082       .  S
C245        C384   1.493       .  S
C246        C319   1.499       .  S
N257        C261   1.353       .  A
N257        C834   1.354       .  A
N257        H289   1.032       .  S
N258        C265   1.355       .  A
N258        C266   1.354       .  A
N259        C263   1.359   1_556  A
N259        C836   1.360   1_556  A
N259        H290   1.032       .  S
N260        C267   1.354       .  A
N260        C268   1.353       .  A
C261        C269   1.388       .  A
C261        C277   1.419       .  A
C262        N829   1.354   1_545  A
C262        C278   1.418       .  A
C262        C270   1.388       .  A
C263        C271   1.387       .  A
C263        C280   1.431   1_554  A
C264        N831   1.358   1_554  A
C264        C279   1.429   1_564  A
C264        C272   1.388       .  A
C265        C277   1.419       .  A
C265        C273   1.385       .  A
C266        C280   1.422       .  A
C266        C274   1.389       .  A
C267        C275   1.386       .  A
C267        C278   1.418       .  A
C268        C276   1.389       .  A
C268        C279   1.422       .  A
C269        H281   1.082       .  S
C269        C842   1.376       .  A
C270        H282   1.082       .  S
C270        C841   1.376   1_545  A
C271        H283   1.082       .  S
C271        C844   1.386       .  A
C272        H284   1.082   1_565  S
C272        C843   1.384       .  A
C273        H285   1.083       .  S
C273        C274   1.372       .  A
C274        H286   1.082       .  S
C275        H287   1.082       .  S
C275        C276   1.368       .  A
C276        H288   1.081       .  S
C277        C295   1.483       .  S
C278        C305   1.482       .  S
C291        N292   1.344       .  A
C291        N296   1.364       .  A
C291        C502   1.465       .  S
N292        C293   1.349       .  A
C293        N294   1.357       .  A
C293        C505   1.467       .  S
N294        C295   1.361       .  A
C295        N296   1.365       .  A
C297        N298   1.362       .  A
C297        N302   1.356       .  A
C297        C497   1.478       .  S
N298        C299   1.363       .  A
C299        N300   1.363       .  A
N300        C301   1.361       .  A
C301        N302   1.357       .  A
C301        C493   1.482       .  S
C303        N304   1.360       .  A
C303        N308   1.350       .  A
C303        C485   1.474       .  S
N304        C305   1.364       .  A
C305        N306   1.362       .  A
N306        C307   1.357       .  A
C307        N308   1.349       .  A
C307        C489   1.471       .  S
C309        N310   1.363       .  A
C309        N314   1.360       .  A
C309        C481   1.485       .  S
N310        C311   1.364       .  A
C311        N312   1.360       .  A
N312        C313   1.360       .  A
C313        N314   1.359       .  A
C313        C478   1.476       .  S
C315        N316   1.359       .  A
C315        N320   1.363       .  A
C315        C469   1.485       .  S
N316        C317   1.360       .  A
C317        N318   1.365       .  A
C317        C473   1.489       .  S
N318        C319   1.366       .  A
C319        N320   1.363       .  A
C321        N322   1.354       .  A
C321        N326   1.360       .  A
C321        C461   1.475       .  S
N322        C323   1.355       .  A
C323        N324   1.358       .  A
C323        C465   1.472       .  S
N324        C325   1.360       .  A
C325        N326   1.361       .  A
C327        N345   1.344       .  A
C327        C477   1.474       .  S
C327        C364   1.464       .  S
N328        N345   1.322       .  A
N328        N350   1.315       .  A
N328       Co365   2.055       .  S
C329        N354   1.335       .  A
C329        C367   1.450       .  S
C329        H374   1.082       .  S
H330        C371   1.081       .  S
C331        N355   1.351       .  A
C331        C335   1.469       .  S
C331        H360   1.081       .  S
Co332       N350   2.095       .  S
Co332       N340   2.045       .  S
Co332       N372   2.057       .  S
Co332       N348   2.090       .  S
Co332      Cl376   2.472       .  S
N333        C371   1.348       .  A
N333        N340   1.324       .  A
N333       Co334   2.130       .  S
Co334       N337   2.056       .  S
Co334       N354   2.057       .  S
Co334       N341   2.130       .  S
Co334      Cl376   2.421       .  S
C335        N373   1.343       .  A
C335        C457   1.478       .  S
N336        N343   1.326       .  A
N336        N366   1.320       .  A
N336       Co369   2.062       .  S
N337        N355   1.316       .  A
N337        N373   1.321       .  A
N338        C367   1.354       .  A
N338        N348   1.330       .  A
H339        C364   1.081       .  S
N340        N361   1.317       .  A
N341        N359   1.326       .  A
N341        N346   1.328       .  A
C342        N346   1.356       .  A
C342        C462   1.475       .  S
C342        C370   1.454       .  S
N343        C358   1.344       .  A
N343       Co365   2.121       .  S
C344        N372   1.334       .  A
C344        C347   1.451       .  S
C344        H378   1.081       .  S
C347        N368   1.354       .  A
C347        C486   1.466       .  S
N348        N354   1.315       .  A
N349        C375   1.334       .  A
N349        N351   1.316       .  A
N349       Co365   2.050       .  S
N350        C364   1.348       .  A
N351        N379   1.332       .  A
N351       Co369   2.109       .  S
H352        C375   1.082       .  S
H353        C370   1.081       .  S
N355       Co369   2.104       .  S
N356        N368   1.326       .  A
N356        N372   1.323       .  A
N356       Co365   2.116       .  S
C357        N361   1.335       .  A
C357        C501   1.468       .  S
C357        C371   1.475       .  S
C358        C377   1.463       .  S
C358        H362   1.081       .  S
N359        C370   1.334       .  A
N359       Co369   2.064       .  S
C363        N379   1.358       .  A
C363        C474   1.479       .  S
C363        C375   1.447       .  S
Co365      Cl376   2.425       .  S
N366        C377   1.343       .  A
C367        C498   1.473       .  S
Co369      Cl376   2.478       .  S
C377        C453   1.468       .  S
C380        N381   1.360       .  A
C380        N385   1.365       .  A
C380        C458   1.490       .  S
N381        C382   1.358       .  A
C382        N383   1.360       .  A
C382        C449   1.474       .  S
N383        C384   1.360       .  A
C384        N385   1.366       .  A
C386        N387   1.359       .  A
C386        N391   1.353       .  A
C386        C445   1.476       .  S
N387        C388   1.363       .  A
C388        N389   1.362       .  A
N389        C390   1.358       .  A
C390        N391   1.350       .  A
C390        C454   1.473       .  S
C392        N410   1.350       .  A
C392        C506   1.459       .  S
C392        C429   1.453       .  S
N393        N410   1.323       .  A
N393        N415   1.322       .  A
N393       Co430   2.099       .  S
C394        N419   1.341       .  A
C394        C432   1.460       .  S
C394        H439   1.081       .  S
H395        C436   1.082       .  S
C396        N420   1.336       .  A
C396        C400   1.456       .  S
C396        H425   1.081       .  S
Co397       N413   2.067       .  S
Co397      N2131   2.060   1_445  S
Co397      N1549   2.091   1_455  S
Co397      N1009   2.105   1_545  S
Co397      Cl441   2.477   1_545  S
N398        C436   1.335       .  A
N398        N405   1.316       .  A
N398      Co1543   2.054       .  S
Co399       N419   2.111       .  S
Co399       N406   2.063       .  S
Co399      N1542   2.058   1_455  S
Co399      N1546   2.104   1_455  S
Co399      Cl441   2.428   1_545  S
C400        N438   1.351       .  A
C400        C466   1.468       .  S
N401        N408   1.317       .  A
N401        N431   1.330       .  A
N401      Co2150   2.104       .  S
N402        N420   1.323       .  A
N402        N438   1.325       .  A
N402      Co1543   2.100       .  S
N403        C432   1.344       .  A
N403        N413   1.320       .  A
H404        C429   1.081       .  S
N405        N426   1.329       .  A
N405      Co1541   2.096       .  S
N406        N424   1.318       .  A
N406        N411   1.323       .  A
C407        N411   1.344       .  A
C407        C470   1.480       .  S
C407        C435   1.468       .  S
N408        C423   1.335       .  A
N408       Co430   2.053       .  S
C409        N437   1.348       .  A
C409        C412   1.468       .  S
C409        H443   1.081       .  S
C412        N433   1.344       .  A
C412        C482   1.474       .  S
N413        N419   1.326       .  A
N414        C440   1.337       .  A
N414        N416   1.324       .  A
N414      Co1574   2.091       .  S
N415        C429   1.334       .  A
N415      Co2113   2.058       .  S
N416        N444   1.325       .  A
N416      Co1006   2.083       .  S
H417        C440   1.081       .  S
H418        C435   1.081       .  S
N420      Co1578   2.075   1_545  S
N421        N433   1.321       .  A
N421        N437   1.317       .  A
N421      Co1574   2.064       .  S
C422        N426   1.354       .  A
C422        C494   1.469       .  S
C422        C436   1.449       .  S
C423        C442   1.450       .  S
C423        H427   1.082       .  S
N424        C435   1.350       .  A
N424       Co434   2.105   1_545  S
C428        N444   1.349       .  A
C428        C446   1.463       .  S
C428        C440   1.453       .  S
Co430      N1558   2.088       .  S
Co430      N1565   2.058       .  S
Co430     Cl2157   2.424       .  S
N431        C442   1.356       .  A
C432        C490   1.464       .  S
Co434      N2117   2.107   1_455  S
Co434       N988   2.085       .  S
Co434      N1564   2.076   1_465  S
Co434      Cl441   2.473       .  S
N437       Co969   2.097       .  S
Cl441     Co2146   2.421       .  S
C442        C450   1.476       .  S
C445        C446   1.345       .  D
C445        H447   1.086       .  S
C446        H448   1.086       .  S
C449        C450   1.347       .  D
C449        H451   1.087       .  S
C450        H452   1.086       .  S
C453        C454   1.349       .  D
C453        H455   1.086       .  S
C454        H456   1.087       .  S
C457        C458   1.350       .  D
C457        H459   1.086       .  S
C458        H460   1.087       .  S
C461        C462   1.350       .  D
C461        H463   1.085       .  S
C462        H464   1.086       .  S
C465        C466   1.345       .  D
C465        H467   1.085       .  S
C466        H468   1.086       .  S
C469        C470   1.350       .  D
C469        H471   1.087       .  S
C470        H472   1.086       .  S
C473        C474   1.351       .  D
C473        H475   1.087       .  S
C474        H476   1.086       .  S
C477        C478   1.346       .  D
C477        H479   1.086       .  S
C478        H480   1.087       .  S
C481        C482   1.348       .  D
C481        H483   1.087       .  S
C482        H484   1.086       .  S
C485        C486   1.350       .  D
C485        H487   1.085       .  S
C486        H488   1.086       .  S
C489        C490   1.347       .  D
C489        H491   1.087       .  S
C490        H492   1.086       .  S
C493        C494   1.347       .  D
C493        H495   1.087       .  S
C494        H496   1.086       .  S
C497        C498   1.349       .  D
C497        H499   1.087       .  S
C498        H500   1.086       .  S
C501        C502   1.329       .  D
C501        H503   1.087       .  S
C502        H504   1.087       .  S
C505        C506   1.346       .  D
C505        H507   1.085       .  S
C506        H508   1.086       .  S
C509        C510   1.346       .  D
C509        H511   1.086       .  S
C510        H512   1.087       .  S
C513        C514   1.349       .  D
C513        H515   1.086       .  S
C514        H516   1.087       .  S
C517        C518   1.345       .  D
C517        H519   1.087       .  S
C518        H520   1.086       .  S
C521        C522   1.331       .  D
C521        H523   1.087       .  S
C522        H524   1.087       .  S
C525        C526   1.348       .  D
C525        H527   1.086       .  S
C526        H528   1.087       .  S
C529        C530   1.348       .  D
C529        H531   1.085       .  S
C530        H532   1.086       .  S
C533        C534   1.348       .  D
C533        H535   1.087       .  S
C534        H536   1.086       .  S
C537        C538   1.346       .  D
C537        H539   1.086       .  S
C538        H540   1.087       .  S
C541        C542   1.350       .  D
C541        H543   1.086       .  S
C542        H544   1.085       .  S
C545        C546   1.346       .  D
C545        H547   1.086       .  S
C546        H548   1.086       .  S
C549        C550   1.346       .  D
C549        H551   1.087       .  S
C550        H552   1.086       .  S
C553        C554   1.352       .  D
C553        H555   1.087       .  S
C554        H556   1.085       .  S
C557        C558   1.349       .  D
C557        H559   1.087       .  S
C558        H560   1.086       .  S
C561        C562   1.351       .  D
C561        H563   1.087       .  S
C562        H564   1.086       .  S
C565        C566   1.349       .  D
C565        H567   1.085       .  S
C566        H568   1.086       .  S
C569        C570   1.332       .  D
C569        H571   1.086       .  S
C570        H572   1.087       .  S
C573        N574   1.355       .  A
C573        N578   1.349       .  A
C573       C1137   1.464       .  S
N574        C575   1.360       .  A
C575        N576   1.366       .  A
C575        C816   1.482       .  S
N576        C577   1.364       .  A
C577        N578   1.344       .  A
C577       C1141   1.466       .  S
C579        N580   1.362       .  A
C579        N584   1.366       .  A
C579       C1133   1.492       .  S
N580        C581   1.361       .  A
C581        N582   1.357       .  A
C581       C1129   1.479       .  S
N582        C583   1.357       .  A
C583        N584   1.365       .  A
C583        C852   1.489   1_554  S
C585        N586   1.359       .  A
C585        N590   1.362       .  A
C585       C1125   1.480       .  S
N586        C587   1.360       .  A
C587        N588   1.363       .  A
C587       C1121   1.482       .  S
N588        C589   1.363       .  A
C589        N590   1.363       .  A
C589        C748   1.494       .  S
C591        N592   1.353       .  A
C591        N596   1.359       .  A
C591       C1114   1.473       .  S
N592        C593   1.354       .  A
C593        N594   1.358       .  A
C593       C1117   1.470       .  S
N594        C595   1.359       .  A
C595        N596   1.360       .  A
C595        C781   1.480       .  S
C597        N615   1.342       .  A
C597       C1122   1.475       .  S
C597        C634   1.471       .  S
N598        N615   1.320       .  A
N598        N620   1.316       .  A
N598       Co635   2.052       .  S
C599        N624   1.333       .  A
C599        C637   1.450       .  S
C599        H644   1.082       .  S
H600        C641   1.081       .  S
C601        N625   1.351       .  A
C601        C605   1.470       .  S
C601       H1774   1.081       .  S
Co602       N620   2.103       .  S
Co602       N610   2.086   1_455  S
Co602      N1190   2.095   1_465  S
Co602      Cl646   2.473       .  S
N603        C641   1.347       .  A
N603       N1754   1.325       .  A
N603       Co604   2.125       .  S
Co604       N607   2.056       .  S
Co604     Cl1790   2.422       .  S
C605        N643   1.343       .  A
C605       C1134   1.481       .  S
N606        N613   1.324       .  A
N606        N636   1.322       .  A
N606       Co639   2.072       .  S
N607        N625   1.316       .  A
N607        N643   1.322       .  A
N608        C637   1.354       .  A
N608        N618   1.328       .  A
H609        C634   1.081       .  S
N610       N1747   1.325       .  A
N610        N631   1.323       .  A
N611        N629   1.324       .  A
N611        N616   1.327       .  A
C612        N616   1.354       .  A
C612       C1113   1.472       .  S
C612        C640   1.453       .  S
N613        C628   1.339       .  A
N613       Co635   2.099       .  S
C614        N642   1.336       .  A
C614        C617   1.454       .  S
C614        H648   1.081       .  S
C617        N638   1.352       .  A
C617       C1102   1.468       .  S
N618        N624   1.315       .  A
N618      Co1174   2.086       .  S
N619        C645   1.333       .  A
N619        N621   1.316       .  A
N620        C634   1.350       .  A
N621        N649   1.332       .  A
H622        C645   1.082       .  S
H623        C640   1.081       .  S
N625      Co1783   2.105       .  S
N626        N638   1.326       .  A
N626        N642   1.323       .  A
C627       N1775   1.338       .  A
C627       C1142   1.470       .  S
C627        C641   1.473       .  S
C628        C647   1.455       .  S
C628        H632   1.081       .  S
N629        C640   1.333       .  A
N629      Co1211   2.059       .  S
H630       C1745   1.081       .  S
N631       C1771   1.350       .  A
C633        N649   1.359       .  A
C633       C1097   1.476       .  S
C633        C645   1.446       .  S
Co635      Cl646   2.423       .  S
N636        C647   1.347       .  A
C637       C1106   1.470       .  S
Co639      N1769   2.102   1_455  S
Co639      N1201   2.071   1_465  S
Co639      Cl646   2.472       .  S
Cl646     Co1748   2.426   1_455  S
C647       C1109   1.463       .  S
C650        N651   1.357       .  A
C650        N655   1.353       .  A
C650       C1093   1.473       .  S
N651        C652   1.361       .  A
C652        N653   1.360       .  A
C652        C784   1.472       .  S
N653        C654   1.355       .  A
C654        N655   1.352       .  A
C654       C1110   1.471       .  S
C656        N657   1.361       .  A
C656        N661   1.357       .  A
C656       C1105   1.475       .  S
N657        C658   1.362       .  A
C658        N659   1.362       .  A
C658        C749   1.487       .  S
N659        C660   1.361       .  A
C660        N661   1.357       .  A
C660       C1089   1.479       .  S
C662        N663   1.357       .  A
C662        N667   1.349       .  A
C662       C1101   1.472       .  S
N663        C664   1.361       .  A
C664        N665   1.363       .  A
C664        C815   1.479       .  S
N665        C666   1.360       .  A
C666        N667   1.351       .  A
C666       C1086   1.472       .  S
C668        N669   1.364       .  A
C668        N673   1.358       .  A
C668       C1082   1.482       .  S
N669        C670   1.363       .  A
C670        N671   1.365       .  A
C670        C851   1.495   1_554  S
N671        C672   1.362       .  A
C672        N673   1.359       .  A
C672       C1098   1.486       .  S
C674        N692   1.348       .  A
C674       C1138   1.455       .  S
C674        C711   1.452       .  S
N675        N692   1.322       .  A
N675        N697   1.322       .  A
N675       Co712   2.092       .  S
C676        N701   1.340       .  A
C676        C714   1.459       .  S
C676        H721   1.081       .  S
H677        C718   1.082       .  S
C678        N702   1.334       .  A
C678        C682   1.454       .  S
C678        H707   1.081       .  S
Co679       N697   2.057       .  S
Co679       N687   2.099       .  S
Co679       N719   2.103       .  S
Co679       N695   2.061       .  S
Co679      Cl723   2.469       .  S
N680        C718   1.335       .  A
N680        N687   1.316       .  A
N680       Co681   2.053       .  S
Co681       N684   2.100       .  S
Co681       N701   2.104       .  S
Co681       N688   2.061       .  S
Co681      Cl723   2.430       .  S
C682        N720   1.351       .  A
C682       C1118   1.467       .  S
N683        N690   1.315       .  A
N683        N713   1.330       .  A
N683       Co716   2.106       .  S
N684        N702   1.323       .  A
N684        N720   1.325       .  A
N685        C714   1.343       .  A
N685        N695   1.320       .  A
H686        C711   1.081       .  S
N687        N708   1.329       .  A
N688        N706   1.318       .  A
N688        N693   1.321       .  A
C689        N693   1.344       .  A
C689       C1081   1.479       .  S
C689        C717   1.469       .  S
N690        C705   1.335       .  A
N690       Co712   2.050       .  S
C691        N719   1.350       .  A
C691        C694   1.469       .  S
C691        H725   1.082       .  S
C694        N715   1.343       .  A
C694       C1126   1.477       .  S
N695        N701   1.325       .  A
N696        C722   1.338       .  A
N696        N698   1.324       .  A
N696       Co712   2.094       .  S
N697        C711   1.333       .  A
N698        N726   1.324       .  A
N698       Co716   2.077       .  S
H699        C722   1.081       .  S
H700        C717   1.081       .  S
N702       Co716   2.069       .  S
N703        N715   1.320       .  A
N703        N719   1.317       .  A
N703       Co712   2.056       .  S
C704        N708   1.355       .  A
C704       C1090   1.471       .  S
C704        C718   1.449       .  S
C705        C724   1.448       .  S
C705        H709   1.082       .  S
N706        C717   1.350       .  A
N706       Co716   2.105       .  S
C710        N726   1.348       .  A
C710       C1094   1.463       .  S
C710        C722   1.454       .  S
Co712      Cl723   2.428       .  S
N713        C724   1.357       .  A
C714       C1085   1.461       .  S
Co716      Cl723   2.469       .  S
C724       C1130   1.472       .  S
N727        C732   1.355       .  A
N727        C731   1.353       .  A
N727        H759   1.032       .  S
N728        C735   1.350       .  A
N729        C734   1.353       .  A
N729        C733   1.356       .  A
N729        H760   1.033       .  S
N730        C737   1.357       .  A
C731        C739   1.387       .  A
C731        C747   1.418       .  A
C732        C748   1.421       .  A
C732        C740   1.389       .  A
C733        C741   1.387       .  A
C733        C750   1.419       .  A
C734        C749   1.420       .  A
C734        C742   1.389       .  A
C735        C747   1.415       .  A
C735        C743   1.388       .  A
C736        C750   1.415       .  A
C736        C744   1.386       .  A
C737        C745   1.386       .  A
C737        C748   1.425       .  A
C738        C749   1.424       .  A
C739        H751   1.082       .  S
C739        C740   1.372       .  A
C740        H752   1.082       .  S
C741        H753   1.082       .  S
C741        C742   1.371       .  A
C742        H754   1.082       .  S
C743        H755   1.082       .  S
C744        H756   1.082       .  S
C745        H757   1.082       .  S
C745        C746   1.383   1_565  A
C747        C960   1.473       .  S
C750        C897   1.483       .  S
N761        C766   1.353       .  A
N761        C765   1.356       .  A
N761        H793   1.032       .  S
N762       C1913   1.351   1_456  A
N762        C770   1.349   1_556  A
N763        C768   1.355       .  A
N763        C767   1.353       .  A
N763        H794   1.034       .  S
N764       C1915   1.355   1_455  A
N764        C772   1.357       .  A
C765        C773   1.387       .  A
C765        C781   1.417   1_556  A
C766        C782   1.420       .  A
C766        C774   1.390       .  A
C767        C775   1.387       .  A
C767        C784   1.416   1_556  A
C768        C783   1.420       .  A
C768        C776   1.389       .  A
C769       N1906   1.352   1_554  A
C769        C781   1.414       .  A
C769        C777   1.386       .  A
C770        C784   1.411       .  A
C770        C778   1.387       .  A
C771       N1908   1.356       .  A
C771        C779   1.387       .  A
C771        C782   1.426       .  A
C772        C780   1.386       .  A
C772        C783   1.424       .  A
C773        H785   1.082       .  S
C773        C774   1.371       .  A
C774        H786   1.082       .  S
C775        H787   1.082       .  S
C775        C776   1.370       .  A
C776        H788   1.081       .  S
C777        H789   1.082       .  S
C777       C1922   1.374       .  A
C778        H790   1.082       .  S
C778       C1921   1.374       .  A
C779        H791   1.082       .  S
C779       C1924   1.383       .  A
C780        H792   1.082       .  S
C780       C1923   1.382   1_455  A
C782        C871   1.486       .  S
C783        C883   1.494       .  S
N795       C1944   1.351   1_455  A
N795        C799   1.353       .  A
N795        H827   1.032       .  S
N796        C803   1.354       .  A
N796        C804   1.351       .  A
N797       C1946   1.359   1_455  A
N797        C801   1.358       .  A
N797        H828   1.032       .  S
N798        C805   1.356       .  A
N798        C806   1.354       .  A
C799        C807   1.386       .  A
C799        C815   1.414       .  A
C800       N1939   1.351       .  A
C800        C816   1.418       .  A
C800        C808   1.389       .  A
C801        C809   1.387       .  A
C801        C818   1.429       .  A
C802       N1941   1.360       .  A
C802        C817   1.431       .  A
C802        C810   1.388       .  A
C803        C815   1.414       .  A
C803        C811   1.385       .  A
C804        C818   1.418       .  A
C804        C812   1.390       .  A
C805        C813   1.386       .  A
C805        C816   1.422       .  A
C806        C814   1.388       .  A
C806        C817   1.422       .  A
C807        H819   1.082       .  S
C807       C1952   1.377       .  A
C808        H820   1.082       .  S
C808       C1951   1.376       .  A
C809        H821   1.082       .  S
C809       C1954   1.386       .  A
C810        H822   1.082       .  S
C810       C1953   1.386       .  A
C811        H823   1.082       .  S
C811        C812   1.367       .  A
C812        H824   1.082       .  S
C813        H825   1.082       .  S
C813        C814   1.371       .  A
C814        H826   1.082       .  S
C817        C956   1.497       .  S
C818        C891   1.488       .  S
N829        C833   1.353       .  A
N829        H861   1.034       .  S
N830        C837   1.354       .  A
N830        C838   1.353       .  A
N831        C835   1.358   1_556  A
N831        H862   1.030       .  S
N832        C839   1.354       .  A
N832        C840   1.353       .  A
C833        C841   1.387       .  A
C833        C849   1.416       .  A
C834        C850   1.417       .  A
C834        C842   1.387       .  A
C835        C843   1.387       .  A
C835        C852   1.429   1_554  A
C836        C851   1.431   1_554  A
C836        C844   1.387       .  A
C837        C849   1.415       .  A
C837        C845   1.385       .  A
C838        C852   1.421       .  A
C838        C846   1.389       .  A
C839        C847   1.386       .  A
C839        C850   1.416       .  A
C840        C848   1.390       .  A
C840        C851   1.421       .  A
C841        H853   1.082       .  S
C842        H854   1.082       .  S
C843        H855   1.082       .  S
C844        H856   1.082       .  S
C845        H857   1.083       .  S
C845        C846   1.370       .  A
C846        H858   1.082       .  S
C847        H859   1.082       .  S
C847        C848   1.366       .  A
C848        H860   1.082       .  S
C849        C867   1.478       .  S
C850        C877   1.479       .  S
C863        N864   1.342       .  A
C863        N868   1.363       .  A
C863       C1074   1.464       .  S
N864        C865   1.348       .  A
C865        N866   1.355       .  A
C865       C1077   1.463       .  S
N866        C867   1.360       .  A
C867        N868   1.365       .  A
C869        N870   1.360       .  A
C869        N874   1.356       .  A
C869       C1069   1.474       .  S
N870        C871   1.361       .  A
C871        N872   1.363       .  A
N872        C873   1.361       .  A
C873        N874   1.357       .  A
C873       C1065   1.481       .  S
C875        N876   1.359       .  A
C875        N880   1.350       .  A
C875       C1057   1.470       .  S
N876        C877   1.362       .  A
C877        N878   1.360       .  A
N878        C879   1.357       .  A
C879        N880   1.351       .  A
C879       C1061   1.467       .  S
C881        N882   1.364       .  A
C881        N886   1.361       .  A
C881       C1053   1.486       .  S
N882        C883   1.364       .  A
C883        N884   1.360       .  A
N884        C885   1.362       .  A
C885        N886   1.361       .  A
C885       C1050   1.480       .  S
C887        N888   1.360       .  A
C887        N892   1.360       .  A
C887       C1041   1.477       .  S
N888        C889   1.362       .  A
C889        N890   1.362       .  A
C889       C1045   1.484       .  S
N890        C891   1.362       .  A
C891        N892   1.359       .  A
C893        N894   1.356       .  A
C893        N898   1.361       .  A
C893       C1033   1.476       .  S
N894        C895   1.356       .  A
C895        N896   1.358       .  A
C895       C1037   1.475       .  S
N896        C897   1.360       .  A
C897        N898   1.360       .  A
C899        N917   1.345       .  A
C899       C1049   1.478       .  S
C899        C936   1.467       .  S
N900        N917   1.322       .  A
N900        N922   1.316       .  A
N900       Co937   2.062       .  S
C901        N926   1.333       .  A
C901        C939   1.449       .  S
C901        H946   1.082       .  S
H902        C943   1.081       .  S
C903        N927   1.350       .  A
C903        C907   1.470       .  S
C903        H932   1.081       .  S
Co904       N922   2.099       .  S
Co904       N912   2.047       .  S
Co904       N944   2.057       .  S
Co904       N920   2.090       .  S
Co904      Cl948   2.471       .  S
N905        C943   1.345       .  A
N905        N912   1.325       .  A
N905       Co906   2.123       .  S
Co906       N909   2.063       .  S
Co906       N926   2.053       .  S
Co906       N913   2.118       .  S
Co906      Cl948   2.424       .  S
C907        N945   1.345       .  A
C907       C1029   1.483       .  S
N908        N915   1.326       .  A
N908        N938   1.322       .  A
N908       Co941   2.071       .  S
N909        N927   1.317       .  A
N909        N945   1.323       .  A
N910        C939   1.355       .  A
N910        N920   1.329       .  A
H911        C936   1.082       .  S
N912        N933   1.318       .  A
N913        N931   1.324       .  A
N913        N918   1.328       .  A
C914        N918   1.354       .  A
C914       C1034   1.476       .  S
C914        C942   1.456       .  S
N915        C930   1.342       .  A
N915       Co937   2.113       .  S
C916        N944   1.333       .  A
C916        C919   1.452       .  S
C916        H950   1.081       .  S
C919        N940   1.353       .  A
C919       C1058   1.467       .  S
N920        N926   1.315       .  A
N921        C947   1.333       .  A
N921        N923   1.315       .  A
N921       Co937   2.048       .  S
N922        C936   1.349       .  A
N923        N951   1.331       .  A
N923       Co941   2.106       .  S
H924        C947   1.082       .  S
H925        C942   1.081       .  S
N927       Co941   2.106       .  S
N928        N940   1.326       .  A
N928        N944   1.322       .  A
N928       Co937   2.107       .  S
C929        N933   1.336       .  A
C929       C1073   1.466       .  S
C929        C943   1.473       .  S
C930        C949   1.460       .  S
C930        H934   1.081       .  S
N931        C942   1.336       .  A
N931       Co941   2.071       .  S
C935        N951   1.358       .  A
C935       C1046   1.474       .  S
C935        C947   1.447       .  S
Co937      Cl948   2.426       .  S
N938        C949   1.345       .  A
C939       C1070   1.470       .  S
Co941      Cl948   2.475       .  S
C949       C1025   1.467       .  S
C952        N953   1.363       .  A
C952        N957   1.365       .  A
C952       C1030   1.490       .  S
N953        C954   1.363       .  A
C954        N955   1.362       .  A
C954       C1021   1.485       .  S
N955        C956   1.360       .  A
C956        N957   1.364       .  A
C958        N959   1.355       .  A
C958        N963   1.354       .  A
C958       C1017   1.470       .  S
N959        C960   1.359       .  A
C960        N961   1.361       .  A
N961        C962   1.358       .  A
C962        N963   1.352       .  A
C962       C1026   1.473       .  S
C964        N982   1.347       .  A
C964       C1078   1.452       .  S
C964       C1001   1.452       .  S
N965        N982   1.320       .  A
N965        N987   1.322       .  A
N965      Co1002   2.088       .  S
C966        N991   1.340       .  A
C966       C1004   1.457       .  S
C966       H1011   1.081       .  S
H967       C1008   1.082       .  S
C968        N992   1.338       .  A
C968        C972   1.458       .  S
C968        H997   1.081       .  S
Co969      N1559   2.053   1_455  S
Co969      N2121   2.099   1_455  S
Co969       N985   2.058       .  S
Co969     Cl1013   2.475       .  S
N970       C1008   1.335       .  A
N970        N977   1.316       .  A
N970      Co2115   2.057       .  S
Co971      N2114   2.056   1_455  S
Co971      N2118   2.101   1_455  S
Co971       N991   2.100       .  S
Co971       N978   2.057       .  S
Co971     Cl1013   2.426       .  S
C972       N1010   1.351       .  A
C972       C1038   1.471       .  S
N973        N980   1.316       .  A
N973       N1003   1.332       .  A
N973      Co1578   2.109       .  S
N974        N992   1.323       .  A
N974       N1010   1.325       .  A
N974      Co2115   2.102       .  S
N975       C1004   1.343       .  A
N975        N985   1.319       .  A
H976       C1001   1.081       .  S
N977        N998   1.329       .  A
N977      Co2113   2.095       .  S
N978        N996   1.316       .  A
N978        N983   1.320       .  A
C979        N983   1.343       .  A
C979       C1042   1.480       .  S
C979       C1007   1.471       .  S
N980        C995   1.335       .  A
N980      Co1002   2.054       .  S
C981       N1009   1.351       .  A
C981        C984   1.472       .  S
C981       H1015   1.081       .  S
C984       N1005   1.342       .  A
C984       C1054   1.479       .  S
N985        N991   1.324       .  A
N986       C1012   1.336       .  A
N986        N988   1.324       .  A
N986      Co2146   2.083       .  S
N987       C1001   1.333       .  A
N987      Co1541   2.056   1_565  S
N988       N1016   1.324       .  A
H989       C1012   1.081       .  S
H990       C1007   1.081       .  S
N992      Co2150   2.076       .  S
N993       N1005   1.320       .  A
N993       N1009   1.316       .  A
N993      Co2146   2.054       .  S
C994        N998   1.354       .  A
C994       C1066   1.469       .  S
C994       C1008   1.449       .  S
C995       C1014   1.449       .  S
C995        H999   1.082       .  S
N996       C1007   1.351       .  A
N996      Co1006   2.106       .  S
C1000      N1016   1.350       .  A
C1000      C1018   1.460       .  S
C1000      C1012   1.450       .  S
Co1002     N2130   2.086       .  S
Co1002     N2137   2.059       .  S
Co1002    Cl1585   2.424       .  S
N1003      C1014   1.358       .  A
C1004      C1062   1.459       .  S
Co1006     N1545   2.102   1_455  S
Co1006     N2136   2.083   1_455  S
Co1006    Cl1013   2.471       .  S
Cl1013    Co1574   2.426       .  S
C1014      C1022   1.478       .  S
C1017      C1018   1.341       .  D
C1017      H1019   1.087       .  S
C1018      H1020   1.086       .  S
C1021      C1022   1.347       .  D
C1021      H1023   1.087       .  S
C1022      H1024   1.086       .  S
C1025      C1026   1.347       .  D
C1025      H1027   1.086       .  S
C1026      H1028   1.087       .  S
C1029      C1030   1.351       .  D
C1029      H1031   1.085       .  S
C1030      H1032   1.087       .  S
C1033      C1034   1.349       .  D
C1033      H1035   1.085       .  S
C1034      H1036   1.086       .  S
C1037      C1038   1.345       .  D
C1037      H1039   1.086       .  S
C1038      H1040   1.086       .  S
C1041      C1042   1.349       .  D
C1041      H1043   1.087       .  S
C1042      H1044   1.086       .  S
C1045      C1046   1.347       .  D
C1045      H1047   1.087       .  S
C1046      H1048   1.086       .  S
C1049      C1050   1.347       .  D
C1049      H1051   1.086       .  S
C1050      H1052   1.087       .  S
C1053      C1054   1.350       .  D
C1053      H1055   1.087       .  S
C1054      H1056   1.086       .  S
C1057      C1058   1.348       .  D
C1057      H1059   1.085       .  S
C1058      H1060   1.086       .  S
C1061      C1062   1.345       .  D
C1061      H1063   1.087       .  S
C1062      H1064   1.086       .  S
C1065      C1066   1.347       .  D
C1065      H1067   1.087       .  S
C1066      H1068   1.086       .  S
C1069      C1070   1.347       .  D
C1069      H1071   1.087       .  S
C1070      H1072   1.086       .  S
C1073      C1074   1.328       .  D
C1073      H1075   1.087       .  S
C1074      H1076   1.087       .  S
C1077      C1078   1.343       .  D
C1077      H1079   1.085       .  S
C1078      H1080   1.086       .  S
C1081      C1082   1.350       .  D
C1081      H1083   1.086       .  S
C1082      H1084   1.087       .  S
C1085      C1086   1.347       .  D
C1085      H1087   1.086       .  S
C1086      H1088   1.087       .  S
C1089      C1090   1.347       .  D
C1089      H1091   1.087       .  S
C1090      H1092   1.086       .  S
C1093      C1094   1.344       .  D
C1093      H1095   1.087       .  S
C1094      H1096   1.086       .  S
C1097      C1098   1.349       .  D
C1097      H1099   1.086       .  S
C1098      H1100   1.087       .  S
C1101      C1102   1.348       .  D
C1101      H1103   1.085       .  S
C1102      H1104   1.086       .  S
C1105      C1106   1.347       .  D
C1105      H1107   1.087       .  S
C1106      H1108   1.086       .  S
C1109      C1110   1.344       .  D
C1109      H1111   1.086       .  S
C1110      H1112   1.087       .  S
C1113      C1114   1.349       .  D
C1113      H1115   1.086       .  S
C1114      H1116   1.085       .  S
C1117      C1118   1.346       .  D
C1117      H1119   1.085       .  S
C1118      H1120   1.086       .  S
C1121      C1122   1.349       .  D
C1121      H1123   1.087       .  S
C1122      H1124   1.086       .  S
C1125      C1126   1.349       .  D
C1125      H1127   1.087       .  S
C1126      H1128   1.086       .  S
C1129      C1130   1.344       .  D
C1129      H1131   1.088       .  S
C1130      H1132   1.086       .  S
C1133      C1134   1.351       .  D
C1133      H1135   1.087       .  S
C1134      H1136   1.085       .  S
C1137      C1138   1.344       .  D
C1137      H1139   1.085       .  S
C1138      H1140   1.086       .  S
C1141      C1142   1.331       .  D
C1141      H1143   1.087       .  S
C1142      H1144   1.087       .  S
C1145      N1146   1.359       .  A
C1145      N1150   1.349       .  A
C1145      C1709   1.471       .  S
N1146      C1147   1.363       .  A
C1147      N1148   1.367       .  A
C1147      C1388   1.490       .  S
N1148      C1149   1.365       .  A
C1149      N1150   1.346       .  A
C1149      C1713   1.470       .  S
C1151      N1152   1.363       .  A
C1151      N1156   1.365       .  A
C1151      C1705   1.494       .  S
N1152      C1153   1.362       .  A
C1153      N1154   1.360       .  A
C1153      C1701   1.477       .  S
N1154      C1155   1.358       .  A
C1155      N1156   1.365       .  A
C1155      C1424   1.495   1_554  S
C1157      N1158   1.358       .  A
C1157      N1162   1.365       .  A
C1157      C1697   1.486       .  S
N1158      C1159   1.357       .  A
C1159      N1160   1.358       .  A
C1159      C1693   1.472       .  S
N1160      C1161   1.359       .  A
C1161      N1162   1.366       .  A
C1161      C1320   1.491       .  S
C1163      N1164   1.354       .  A
C1163      N1168   1.354       .  A
C1163      C1686   1.465       .  S
N1164      C1165   1.352       .  A
C1165      N1166   1.358       .  A
C1165      C1689   1.472       .  S
N1166      C1167   1.360       .  A
C1167      N1168   1.357       .  A
C1167      C1353   1.473       .  S
C1169      N1187   1.345       .  A
C1169      C1694   1.470       .  S
C1169      C1206   1.462       .  S
N1170      N1187   1.321       .  A
N1170      N1192   1.315       .  A
N1170     Co1207   2.060       .  S
C1171      N1196   1.336       .  A
C1171      C1209   1.451       .  S
C1171      H1216   1.082       .  S
H1172      C1213   1.081       .  S
C1173      N1197   1.353       .  A
C1173      C1177   1.474       .  S
Co1174     N1192   2.087       .  S
Co1174     N1182   2.054       .  S
Co1174     N1786   2.067       .  S
Co1174    Cl1218   2.472       .  S
N1175      C1213   1.347       .  A
N1175     Co1176   2.125       .  S
Co1176     N1179   2.055       .  S
Co1176     N1768   2.052       .  S
Co1176     N1755   2.130       .  S
C1177      N1215   1.342       .  A
C1177      C1706   1.484       .  S
N1178      N1185   1.325       .  A
N1178      N1208   1.318       .  A
N1178     Co1211   2.056       .  S
N1179      N1197   1.316       .  A
N1179      N1215   1.322       .  A
N1180      C1209   1.355       .  A
N1180      N1190   1.329       .  A
H1181      C1206   1.081       .  S
N1182      N1203   1.320       .  A
N1183      N1201   1.323       .  A
N1183      N1188   1.321       .  A
N1183     Co1748   2.085   1_545  S
C1184      N1188   1.346       .  A
C1184      C1685   1.458       .  S
C1184      C1212   1.456       .  S
N1185      C1200   1.338       .  A
N1185     Co1207   2.101       .  S
C1186      N1214   1.336       .  A
C1186      C1189   1.453       .  S
C1186      H1220   1.081       .  S
C1189      N1210   1.350       .  A
C1189      C1674   1.462       .  S
N1190      N1196   1.315       .  A
N1191      C1217   1.334       .  A
N1191      N1193   1.315       .  A
N1191     Co1779   2.047   1_545  S
N1192      C1206   1.346       .  A
N1193      N1221   1.331       .  A
N1193     Co1783   2.107   1_545  S
H1194      C1217   1.082       .  S
H1195      C1212   1.081       .  S
N1196     Co1748   2.060   1_545  S
N1198      N1210   1.324       .  A
N1198      N1214   1.323       .  A
N1198     Co1779   2.105   1_545  S
C1199      C1714   1.474       .  S
C1199      C1213   1.473       .  S
C1200      C1219   1.455       .  S
C1200      H1204   1.081       .  S
N1201      C1212   1.336       .  A
C1205      N1221   1.358       .  A
C1205      C1669   1.476       .  S
C1205      C1217   1.447       .  S
Co1207     N1763   2.046       .  S
Co1207     N1770   2.096       .  S
Co1207    Cl1218   2.423       .  S
N1208      C1219   1.343       .  A
C1209      C1678   1.473       .  S
Co1211     N1765   2.112       .  S
Co1211    Cl1218   2.479       .  S
N1214     Co1746   2.063   1_545  S
C1219      C1681   1.454       .  S
C1222      N1223   1.361       .  A
C1222      N1227   1.343       .  A
C1222      C1665   1.460       .  S
N1223      C1224   1.364       .  A
C1224      N1225   1.361       .  A
C1224      C1356   1.481       .  S
N1225      C1226   1.355       .  A
C1226      N1227   1.348       .  A
C1226      C1682   1.465       .  S
C1228      N1229   1.361       .  A
C1228      N1233   1.360       .  A
C1228      C1677   1.481       .  S
N1229      C1230   1.361       .  A
C1230      N1231   1.361       .  A
C1230      C1321   1.487       .  S
N1231      C1232   1.361       .  A
C1232      N1233   1.361       .  A
C1232      C1661   1.483       .  S
C1234      N1235   1.358       .  A
C1234      N1239   1.352       .  A
C1234      C1673   1.471       .  S
N1235      C1236   1.361       .  A
C1236      N1237   1.363       .  A
C1236      C1387   1.482       .  S
N1237      C1238   1.360       .  A
C1238      N1239   1.350       .  A
C1238      C1658   1.476       .  S
C1240      N1241   1.360       .  A
C1240      N1245   1.358       .  A
C1240      C1654   1.474       .  S
N1241      C1242   1.360       .  A
C1242      N1243   1.365       .  A
C1242      C1423   1.491   1_554  S
N1243      C1244   1.363       .  A
C1244      N1245   1.359       .  A
C1244      C1670   1.486       .  S
C1246      N1264   1.354       .  A
C1246      C1710   1.466       .  S
C1246      C1283   1.451       .  S
N1247      N1264   1.326       .  A
N1247      N1269   1.324       .  A
N1247     Co1284   2.120       .  S
C1248      N1273   1.346       .  A
C1248      C1286   1.466       .  S
C1248      H1293   1.081       .  S
H1249      C1290   1.082       .  S
C1250      N1274   1.334       .  A
C1250      C1254   1.453       .  S
C1250      H1279   1.081       .  S
Co1251     N1269   2.054       .  S
Co1251     N1259   2.101       .  S
Co1251     N1291   2.094       .  S
Co1251     N1267   2.059       .  S
Co1251    Cl1295   2.477       .  S
N1252      C1290   1.333       .  A
N1252      N1259   1.314       .  A
N1252     Co1253   2.049       .  S
Co1253     N1256   2.117       .  S
Co1253     N1273   2.128       .  S
Co1253     N1260   2.055       .  S
Co1253    Cl1295   2.425       .  S
C1254      N1292   1.354       .  A
C1254      C1690   1.471       .  S
N1255      N1262   1.315       .  A
N1255      N1285   1.332       .  A
N1255     Co1288   2.104       .  S
N1256      N1274   1.323       .  A
N1256      N1292   1.327       .  A
N1257      C1286   1.342       .  A
N1257      N1267   1.320       .  A
H1258      C1283   1.081       .  S
N1259      N1280   1.331       .  A
N1260      N1278   1.316       .  A
N1260      N1265   1.321       .  A
C1261      N1265   1.344       .  A
C1261      C1653   1.474       .  S
C1261      C1289   1.465       .  S
N1262      C1277   1.334       .  A
N1262     Co1284   2.051       .  S
C1263      N1291   1.348       .  A
C1263      C1266   1.466       .  S
C1263      H1297   1.081       .  S
C1266      N1287   1.344       .  A
C1266      C1698   1.475       .  S
N1267      N1273   1.326       .  A
N1268      C1294   1.344       .  A
N1268      N1270   1.324       .  A
N1268     Co1284   2.118       .  S
N1269      C1283   1.332       .  A
N1270      N1298   1.319       .  A
N1270     Co1288   2.052       .  S
H1271      C1294   1.081       .  S
H1272      C1289   1.081       .  S
N1274     Co1288   2.063       .  S
N1275      N1287   1.321       .  A
N1275      N1291   1.316       .  A
N1275     Co1284   2.056       .  S
C1276      N1280   1.357       .  A
C1276      C1662   1.472       .  S
C1276      C1290   1.447       .  S
C1277      C1296   1.448       .  S
C1277      H1281   1.082       .  S
N1278      C1289   1.348       .  A
N1278     Co1288   2.100       .  S
C1282      N1298   1.338       .  A
C1282      C1666   1.466       .  S
C1282      C1294   1.470       .  S
Co1284    Cl1295   2.417       .  S
N1285      C1296   1.358       .  A
C1286      C1657   1.471       .  S
Co1288    Cl1295   2.473       .  S
C1296      C1702   1.480       .  S
N1299      C1304   1.355       .  A
N1299      C1303   1.353       .  A
N1299      H1331   1.033       .  S
N1300      C1307   1.350       .  A
N1300      C1880   1.353       .  A
N1301      C1306   1.353       .  A
N1301      C1305   1.355       .  A
N1301      H1332   1.032       .  S
N1302      C1309   1.356       .  A
N1302      C1882   1.355       .  A
C1303      C1311   1.388       .  A
C1303      C1319   1.418       .  A
C1304      C1320   1.420       .  A
C1304      C1312   1.389       .  A
C1305      C1313   1.387       .  A
C1305      C1322   1.417       .  A
C1306      C1321   1.420       .  A
C1306      C1314   1.390       .  A
C1307      C1319   1.415       .  A
C1307      C1315   1.388       .  A
C1308      N1872   1.351   1_545  A
C1308      C1322   1.412       .  A
C1308      C1316   1.386       .  A
C1309      C1317   1.387       .  A
C1309      C1320   1.424       .  A
C1310      N1874   1.356   1_545  A
C1310      C1890   1.386       .  A
C1310      C1321   1.426       .  A
C1311      H1323   1.082       .  S
C1311      C1312   1.371       .  A
C1312      H1324   1.081       .  S
C1313      H1325   1.082       .  S
C1313      C1314   1.370       .  A
C1314      H1326   1.082       .  S
C1315      H1327   1.082       .  S
C1315      C1888   1.376       .  A
C1316      H1328   1.082       .  S
C1316      C1887   1.375   1_545  A
C1317      H1329   1.082       .  S
C1317      C1318   1.382       .  A
C1318      H1902   1.082       .  S
C1318      C1882   1.386       .  A
C1319      C1532   1.474       .  S
C1322      C1469   1.477       .  S
H1330      C1890   1.082       .  S
N1333      C1338   1.351       .  A
N1333      C1337   1.354       .  A
N1333      H1365   1.033       .  S
N1334      C1342   1.351       .  A
N1335      C1340   1.356       .  A
N1335      C1339   1.356       .  A
N1335      H1366   1.031       .  S
N1336      C1344   1.357       .  A
C1337      C1345   1.387       .  A
C1337      C1353   1.414   1_556  A
C1338      C1354   1.416       .  A
C1338      C1346   1.389       .  A
C1339      C1347   1.388       .  A
C1339      C1356   1.423   1_556  A
C1340      C1355   1.424       .  A
C1340      C1348   1.388       .  A
C1341      C1353   1.410       .  A
C1341      C1349   1.385   1_655  A
C1342      C1356   1.417       .  A
C1342      C1350   1.388       .  A
C1343      C1351   1.386       .  A
C1343      C1354   1.422       .  A
C1344      C1352   1.387       .  A
C1344      C1355   1.426       .  A
C1345      H1357   1.082       .  S
C1345      C1346   1.370       .  A
C1346      H1358   1.082       .  S
C1347      H1359   1.082       .  S
C1347      C1348   1.373       .  A
C1348      H1360   1.082       .  S
C1349      H1361   1.082   1_455  S
C1350      H1362   1.082       .  S
C1351      H1363   1.082       .  S
C1352      H1364   1.082       .  S
C1354      C1443   1.484       .  S
C1355      C1455   1.494       .  S
N1367      C1371   1.354       .  A
N1367      H1399   1.033       .  S
N1368      C1375   1.354       .  A
N1368      C1376   1.355       .  A
N1369      C1373   1.361       .  A
N1369      H1400   1.029       .  S
N1370      C1377   1.356       .  A
N1370      C1378   1.356       .  A
C1371      C1379   1.388       .  A
C1371      C1387   1.420       .  A
C1372      C1388   1.422       .  A
C1372      C1380   1.388       .  A
C1373      C1381   1.387       .  A
C1373      C1390   1.433       .  A
C1374      C1389   1.433       .  A
C1374      C1382   1.388       .  A
C1375      C1387   1.419       .  A
C1375      C1383   1.386       .  A
C1376      C1390   1.423       .  A
C1376      C1384   1.388       .  A
C1377      C1385   1.385       .  A
C1377      C1388   1.421       .  A
C1378      C1386   1.389       .  A
C1378      C1389   1.426       .  A
C1379      H1391   1.082       .  S
C1380      H1392   1.082       .  S
C1381      H1393   1.082       .  S
C1382      H1394   1.082       .  S
C1383      H1395   1.082       .  S
C1383      C1384   1.369       .  A
C1384      H1396   1.082       .  S
C1385      H1397   1.082       .  S
C1385      C1386   1.373       .  A
C1386      H1398   1.082       .  S
C1389      C1528   1.496       .  S
C1390      C1463   1.501       .  S
N1401      C1978   1.352       .  A
N1401      C1405   1.354       .  A
N1401      H1433   1.030       .  S
N1402      C1409   1.357       .  A
N1402      C1410   1.354       .  A
N1403      C1980   1.361   1_556  A
N1403      C1407   1.359   1_556  A
N1403      H1434   1.034       .  S
N1404      C1411   1.353       .  A
N1404      C1412   1.353       .  A
C1405      C1413   1.388       .  A
C1405      C1421   1.420       .  A
C1406      N1973   1.352   1_545  A
C1406      C1422   1.413       .  A
C1406      C1414   1.387       .  A
C1407      C1415   1.389       .  A
C1407      C1424   1.432   1_554  A
C1408      N1975   1.359   1_544  A
C1408      C1423   1.427   1_554  A
C1408      C1416   1.387   1_545  A
C1409      C1421   1.422       .  A
C1409      C1417   1.385       .  A
C1410      C1424   1.424       .  A
C1410      C1418   1.389       .  A
C1411      C1419   1.385       .  A
C1411      C1422   1.414       .  A
C1412      C1420   1.389       .  A
C1412      C1423   1.419       .  A
C1413      H1425   1.082       .  S
C1413      C1986   1.376       .  A
C1414      H1426   1.082       .  S
C1414      C1985   1.374   1_545  A
C1415      H1427   1.082       .  S
C1415      C1988   1.385       .  A
C1416      H1428   1.082   1_565  S
C1416      C1987   1.384       .  A
C1417      H1429   1.082       .  S
C1417      C1418   1.370       .  A
C1418      H1430   1.082       .  S
C1419      H1431   1.082       .  S
C1419      C1420   1.367       .  A
C1420      H1432   1.082       .  S
C1421      C1439   1.488       .  S
C1422      C1449   1.475       .  S
C1435      N1436   1.342       .  A
C1435      N1440   1.364       .  A
C1435      C1646   1.465       .  S
N1436      C1437   1.348       .  A
C1437      N1438   1.357       .  A
C1437      C1649   1.467       .  S
N1438      C1439   1.363       .  A
C1439      N1440   1.366       .  A
C1441      N1442   1.360       .  A
C1441      N1446   1.356       .  A
C1441      C1641   1.475       .  S
N1442      C1443   1.361       .  A
C1443      N1444   1.362       .  A
N1444      C1445   1.361       .  A
C1445      N1446   1.358       .  A
C1445      C1637   1.481       .  S
C1447      N1448   1.358       .  A
C1447      N1452   1.350       .  A
C1447      C1629   1.470       .  S
N1448      C1449   1.362       .  A
C1449      N1450   1.359       .  A
N1450      C1451   1.355       .  A
C1451      N1452   1.349       .  A
C1451      C1633   1.467       .  S
C1453      N1454   1.365       .  A
C1453      N1458   1.360       .  A
C1453      C1625   1.487       .  S
N1454      C1455   1.365       .  A
C1455      N1456   1.360       .  A
N1456      C1457   1.360       .  A
C1457      N1458   1.359       .  A
C1457      C1622   1.479       .  S
C1459      N1460   1.359       .  A
C1459      N1464   1.364       .  A
C1459      C1613   1.482       .  S
N1460      C1461   1.360       .  A
C1461      N1462   1.365       .  A
C1461      C1617   1.490       .  S
N1462      C1463   1.366       .  A
C1463      N1464   1.363       .  A
C1465      N1466   1.354       .  A
C1465      N1470   1.359       .  A
C1465      C1605   1.469       .  S
N1466      C1467   1.355       .  A
C1467      N1468   1.357       .  A
C1467      C1609   1.472       .  S
N1468      C1469   1.359       .  A
C1469      N1470   1.359       .  A
C1471      N1489   1.345       .  A
C1471      C1621   1.474       .  S
C1471      C1508   1.464       .  S
N1472      N1489   1.322       .  A
N1472      N1494   1.315       .  A
N1472     Co1509   2.060       .  S
C1473      N1498   1.334       .  A
C1473      C1511   1.449       .  S
C1473      H1518   1.082       .  S
H1474      C1515   1.081       .  S
C1475      N1499   1.349       .  A
C1475      C1479   1.467       .  S
C1475      H1504   1.081       .  S
Co1476     N1494   2.094       .  S
Co1476     N1484   2.051       .  S
Co1476     N1516   2.062       .  S
Co1476     N1492   2.093       .  S
Co1476    Cl1520   2.469       .  S
N1477      C1515   1.347       .  A
N1477      N1484   1.325       .  A
N1477     Co1478   2.124       .  S
Co1478     N1481   2.059       .  S
Co1478     N1498   2.053       .  S
Co1478     N1485   2.118       .  S
Co1478    Cl1520   2.426       .  S
C1479      N1517   1.344       .  A
C1479      C1601   1.479       .  S
N1480      N1487   1.326       .  A
N1480      N1510   1.320       .  A
N1480     Co1513   2.063       .  S
N1481      N1499   1.316       .  A
N1481      N1517   1.323       .  A
N1482      C1511   1.355       .  A
N1482      N1492   1.330       .  A
H1483      C1508   1.081       .  S
N1484      N1505   1.318       .  A
N1485      N1503   1.325       .  A
N1485      N1490   1.327       .  A
C1486      N1490   1.354       .  A
C1486      C1606   1.470       .  S
C1486      C1514   1.454       .  S
N1487      C1502   1.342       .  A
N1487     Co1509   2.109       .  S
C1488      N1516   1.334       .  A
C1488      C1491   1.452       .  S
C1488      H1522   1.081       .  S
C1491      N1512   1.351       .  A
C1491      C1630   1.463       .  S
N1492      N1498   1.315       .  A
N1493      C1519   1.336       .  A
N1493      N1495   1.316       .  A
N1493     Co1509   2.054       .  S
N1494      C1508   1.348       .  A
N1495      N1523   1.333       .  A
N1495     Co1513   2.110       .  S
H1496      C1519   1.082       .  S
H1497      C1514   1.081       .  S
N1499     Co1513   2.099       .  S
N1500      N1512   1.324       .  A
N1500      N1516   1.323       .  A
N1500     Co1509   2.105       .  S
C1501      N1505   1.336       .  A
C1501      C1645   1.467       .  S
C1501      C1515   1.473       .  S
C1502      C1521   1.459       .  S
C1502      H1506   1.081       .  S
N1503      C1514   1.332       .  A
N1503     Co1513   2.064       .  S
C1507      N1523   1.358       .  A
C1507      C1618   1.481       .  S
C1507      C1519   1.448       .  S
Co1509    Cl1520   2.429       .  S
N1510      C1521   1.344       .  A
C1511      C1642   1.472       .  S
Co1513    Cl1520   2.471       .  S
C1521      C1597   1.463       .  S
C1524      N1525   1.360       .  A
C1524      N1529   1.367       .  A
C1524      C1602   1.491       .  S
N1525      C1526   1.358       .  A
C1526      N1527   1.360       .  A
C1526      C1593   1.477       .  S
N1527      C1528   1.360       .  A
C1528      N1529   1.367       .  A
C1530      N1531   1.357       .  A
C1530      N1535   1.352       .  A
C1530      C1589   1.473       .  S
N1531      C1532   1.361       .  A
C1532      N1533   1.361       .  A
N1533      C1534   1.356       .  A
C1534      N1535   1.351       .  A
C1534      C1598   1.470       .  S
C1536      N1554   1.351       .  A
C1536      C1650   1.458       .  S
C1536      C1573   1.451       .  S
N1537      N1554   1.323       .  A
N1537      N1559   1.322       .  A
N1537     Co1574   2.102   1_655  S
C1538      N1563   1.340       .  A
C1538      C1576   1.457       .  S
C1538      H1583   1.081       .  S
H1539      C1580   1.082       .  S
C1540      N1564   1.337       .  A
C1540      C1544   1.457       .  S
C1540      H1569   1.081       .  S
Co1541     N2153   2.107   1_545  S
Co1541     N1557   2.063       .  S
Co1541    Cl1585   2.475   1_545  S
N1542      C1580   1.336       .  A
N1542      N1549   1.316       .  A
Co1543     N1563   2.104       .  S
Co1543     N1550   2.056       .  S
Co1543    Cl1585   2.428   1_545  S
C1544      N1582   1.350       .  A
C1544      C1610   1.468       .  S
N1545      N1552   1.317       .  A
N1545      N1575   1.330       .  A
N1546      N1564   1.324       .  A
N1546      N1582   1.324       .  A
N1547      C1576   1.344       .  A
N1547      N1557   1.319       .  A
H1548      C1573   1.081       .  S
N1549      N1570   1.329       .  A
N1550      N1568   1.318       .  A
N1550      N1555   1.321       .  A
C1551      N1555   1.343       .  A
C1551      C1614   1.480       .  S
C1551      C1579   1.470       .  S
N1552      C1567   1.336       .  A
N1552     Co1574   2.060   1_655  S
C1553      N1581   1.350       .  A
C1553      C1556   1.469       .  S
C1553      H1587   1.081       .  S
C1556      N1577   1.343       .  A
C1556      C1626   1.477       .  S
N1557      N1563   1.325       .  A
N1558      C1584   1.336       .  A
N1558      N1560   1.324       .  A
N1559      C1573   1.333       .  A
N1560      N1588   1.324       .  A
N1560     Co2150   2.081       .  S
H1561      C1584   1.081       .  S
H1562      C1579   1.081       .  S
N1565      N1577   1.321       .  A
N1565      N1581   1.316       .  A
C1566      N1570   1.353       .  A
C1566      C1638   1.469       .  S
C1566      C1580   1.450       .  S
C1567      C1586   1.452       .  S
C1567      H1571   1.082       .  S
N1568      C1579   1.350       .  A
N1568     Co1578   2.109   1_545  S
C1572      N1588   1.348       .  A
C1572      C1590   1.461       .  S
C1572      C1584   1.452       .  S
N1575      C1586   1.355       .  A
C1576      C1634   1.460       .  S
Co1578     N2132   2.081       .  S
Co1578    Cl1585   2.473       .  S
N1581     Co2113   2.101       .  S
C1586      C1594   1.476       .  S
C1589      C1590   1.343       .  D
C1589      H1591   1.086       .  S
C1590      H1592   1.086       .  S
C1593      C1594   1.346       .  D
C1593      H1595   1.087       .  S
C1594      H1596   1.086       .  S
C1597      C1598   1.346       .  D
C1597      H1599   1.086       .  S
C1598      H1600   1.087       .  S
C1601      C1602   1.352       .  D
C1601      H1603   1.085       .  S
C1602      H1604   1.087       .  S
C1605      C1606   1.347       .  D
C1605      H1607   1.085       .  S
C1606      H1608   1.086       .  S
C1609      C1610   1.344       .  D
C1609      H1611   1.086       .  S
C1610      H1612   1.086       .  S
C1613      C1614   1.351       .  D
C1613      H1615   1.087       .  S
C1614      H1616   1.086       .  S
C1617      C1618   1.351       .  D
C1617      H1619   1.087       .  S
C1618      H1620   1.086       .  S
C1621      C1622   1.346       .  D
C1621      H1623   1.086       .  S
C1622      H1624   1.087       .  S
C1625      C1626   1.350       .  D
C1625      H1627   1.087       .  S
C1626      H1628   1.086       .  S
C1629      C1630   1.347       .  D
C1629      H1631   1.085       .  S
C1630      H1632   1.086       .  S
C1633      C1634   1.345       .  D
C1633      H1635   1.087       .  S
C1634      H1636   1.086       .  S
C1637      C1638   1.346       .  D
C1637      H1639   1.087       .  S
C1638      H1640   1.086       .  S
C1641      C1642   1.347       .  D
C1641      H1643   1.087       .  S
C1642      H1644   1.086       .  S
C1645      C1646   1.329       .  D
C1645      H1647   1.087       .  S
C1646      H1648   1.087       .  S
C1649      C1650   1.347       .  D
C1649      H1651   1.085       .  S
C1650      H1652   1.086       .  S
C1653      C1654   1.346       .  D
C1653      H1655   1.086       .  S
C1654      H1656   1.087       .  S
C1657      C1658   1.351       .  D
C1657      H1659   1.086       .  S
C1658      H1660   1.086       .  S
C1661      C1662   1.346       .  D
C1661      H1663   1.087       .  S
C1662      H1664   1.086       .  S
C1665      C1666   1.331       .  D
C1665      H1667   1.087       .  S
C1666      H1668   1.087       .  S
C1669      C1670   1.349       .  D
C1669      H1671   1.086       .  S
C1670      H1672   1.087       .  S
C1673      C1674   1.346       .  D
C1673      H1675   1.086       .  S
C1674      H1676   1.086       .  S
C1677      C1678   1.346       .  D
C1677      H1679   1.087       .  S
C1678      H1680   1.086       .  S
C1681      C1682   1.345       .  D
C1681      H1683   1.086       .  S
C1682      H1684   1.087       .  S
C1685      C1686   1.340       .  D
C1685      H1687   1.086       .  S
C1686      H1688   1.086       .  S
C1689      C1690   1.348       .  D
C1689      H1691   1.085       .  S
C1690      H1692   1.086       .  S
C1693      C1694   1.344       .  D
C1693      H1695   1.087       .  S
C1694      H1696   1.086       .  S
C1697      C1698   1.350       .  D
C1697      H1699   1.087       .  S
C1698      H1700   1.086       .  S
C1701      C1702   1.348       .  D
C1701      H1703   1.087       .  S
C1702      H1704   1.086       .  S
C1705      C1706   1.351       .  D
C1705      H1707   1.087       .  S
C1706      H1708   1.086       .  S
C1709      C1710   1.350       .  D
C1709      H1711   1.085       .  S
C1710      H1712   1.086       .  S
C1713      C1714   1.332       .  D
C1713      H1715   1.086       .  S
C1714      H1716   1.087       .  S
C1717      N1718   1.356       .  A
C1717      N1722   1.355       .  A
C1717      C2281   1.470       .  S
N1718      C1719   1.358       .  A
C1719      N1720   1.358       .  A
C1719      C1960   1.473       .  S
N1720      C1721   1.357       .  A
C1721      N1722   1.356       .  A
C1721      C2285   1.471       .  S
C1723      N1724   1.360       .  A
C1723      N1728   1.363       .  A
C1723      C2277   1.479       .  S
N1724      C1725   1.361       .  A
C1725      N1726   1.359       .  A
C1725      C2273   1.483       .  S
N1726      C1727   1.360       .  A
C1727      N1728   1.361       .  A
C1727      C1996   1.488   1_554  S
C1729      N1730   1.361       .  A
C1729      N1734   1.362       .  A
C1729      C2269   1.484       .  S
N1730      C1731   1.360       .  A
C1731      N1732   1.362       .  A
C1731      C2265   1.478       .  S
N1732      C1733   1.361       .  A
C1733      N1734   1.362       .  A
C1733      C1892   1.492       .  S
C1735      N1736   1.353       .  A
C1735      N1740   1.360       .  A
C1735      C2258   1.472       .  S
N1736      C1737   1.354       .  A
C1737      N1738   1.357       .  A
C1737      C2261   1.469       .  S
N1738      C1739   1.359       .  A
C1739      N1740   1.360       .  A
C1739      C1925   1.479       .  S
C1741      N1759   1.343       .  A
C1741      C2266   1.478       .  S
C1741      C1778   1.468       .  S
N1742      N1759   1.321       .  A
N1742      N1764   1.316       .  A
N1742     Co1779   2.052       .  S
C1743      N1768   1.333       .  A
C1743      C1781   1.449       .  S
C1743      H1788   1.082       .  S
H1744      C1785   1.081       .  S
C1745      N1769   1.350       .  A
C1745      C1749   1.468       .  S
Co1746     N1764   2.101       .  S
Co1746     N1754   2.055       .  S
Co1746    Cl1790   2.473       .  S
N1747      C1785   1.338       .  A
N1747     Co1748   2.090       .  S
Co1748     N1751   2.059       .  S
C1749      N1787   1.344       .  A
C1749      C2278   1.479       .  S
N1750      N1757   1.326       .  A
N1750      N1780   1.318       .  A
N1750     Co1783   2.062       .  S
N1751      N1769   1.317       .  A
N1751      N1787   1.321       .  A
N1752      C1781   1.354       .  A
N1752      N1762   1.329       .  A
H1753      C1778   1.081       .  S
N1754      N1775   1.319       .  A
N1755      N1773   1.325       .  A
N1755      N1760   1.328       .  A
C1756      N1760   1.357       .  A
C1756      C2257   1.473       .  S
C1756      C1784   1.452       .  S
N1757      C1772   1.345       .  A
N1757     Co1779   2.118       .  S
C1758      N1786   1.335       .  A
C1758      C1761   1.455       .  S
C1758      H1792   1.081       .  S
C1761      N1782   1.350       .  A
C1761      C2246   1.465       .  S
N1762      N1768   1.315       .  A
N1763      C1789   1.333       .  A
N1763      N1765   1.316       .  A
N1764      C1778   1.350       .  A
N1765      N1793   1.332       .  A
H1766      C1789   1.082       .  S
H1767      C1784   1.081       .  S
N1770      N1782   1.325       .  A
N1770      N1786   1.322       .  A
C1771      C2286   1.465       .  S
C1771      C1785   1.453       .  S
C1772      C1791   1.464       .  S
C1772      H1776   1.081       .  S
N1773      C1784   1.332       .  A
C1777      N1793   1.359       .  A
C1777      C2241   1.477       .  S
C1777      C1789   1.446       .  S
Co1779    Cl1790   2.425       .  S
N1780      C1791   1.343       .  A
C1781      C2250   1.471       .  S
Co1783    Cl1790   2.476       .  S
C1791      C2253   1.467       .  S
C1794      N1795   1.358       .  A
C1794      N1799   1.352       .  A
C1794      C2237   1.473       .  S
N1795      C1796   1.362       .  A
C1796      N1797   1.361       .  A
C1796      C1928   1.478       .  S
N1797      C1798   1.357       .  A
C1798      N1799   1.348       .  A
C1798      C2254   1.470       .  S
C1800      N1801   1.359       .  A
C1800      N1805   1.356       .  A
C1800      C2249   1.473       .  S
N1801      C1802   1.361       .  A
C1802      N1803   1.363       .  A
C1802      C1893   1.485       .  S
N1803      C1804   1.361       .  A
C1804      N1805   1.357       .  A
C1804      C2233   1.482       .  S
C1806      N1807   1.355       .  A
C1806      N1811   1.352       .  A
C1806      C2245   1.469       .  S
N1807      C1808   1.359       .  A
C1808      N1809   1.360       .  A
C1808      C1959   1.475       .  S
N1809      C1810   1.358       .  A
C1810      N1811   1.353       .  A
C1810      C2230   1.472       .  S
C1812      N1813   1.361       .  A
C1812      N1817   1.358       .  A
C1812      C2226   1.479       .  S
N1813      C1814   1.362       .  A
C1814      N1815   1.366       .  A
C1814      C1995   1.494   1_554  S
N1815      C1816   1.365       .  A
C1816      N1817   1.360       .  A
C1816      C2242   1.487       .  S
C1818      N1836   1.351       .  A
C1818      C2282   1.467       .  S
C1818      C1855   1.455       .  S
N1819      N1836   1.325       .  A
N1819      N1841   1.322       .  A
N1819     Co1856   2.102       .  S
C1820      N1845   1.339       .  A
C1820      C1858   1.455       .  S
C1820      H1865   1.081       .  S
H1821      C1862   1.082       .  S
C1822      N1846   1.335       .  A
C1822      C1826   1.455       .  S
C1822      H1851   1.081       .  S
Co1823     N1841   2.066       .  S
Co1823     N1831   2.096       .  S
Co1823     N1863   2.103       .  S
Co1823     N1839   2.072       .  S
Co1823    Cl1867   2.475       .  S
N1824      C1862   1.335       .  A
N1824      N1831   1.316       .  A
N1824     Co1825   2.057       .  S
Co1825     N1828   2.096       .  S
Co1825     N1845   2.098       .  S
Co1825     N1832   2.059       .  S
Co1825    Cl1867   2.425       .  S
C1826      N1864   1.350       .  A
C1826      C2262   1.464       .  S
N1827      N1834   1.316       .  A
N1827      N1857   1.330       .  A
N1827     Co1860   2.101       .  S
N1828      N1846   1.323       .  A
N1828      N1864   1.324       .  A
N1829      C1858   1.347       .  A
N1829      N1839   1.322       .  A
H1830      C1855   1.081       .  S
N1831      N1852   1.329       .  A
N1832      N1850   1.317       .  A
N1832      N1837   1.321       .  A
C1833      N1837   1.344       .  A
C1833      C2225   1.479       .  S
C1833      C1861   1.469       .  S
N1834      C1849   1.335       .  A
N1834     Co1856   2.054       .  S
C1835      N1863   1.350       .  A
C1835      C1838   1.470       .  S
C1835      H1869   1.081       .  S
C1838      N1859   1.343       .  A
C1838      C2270   1.476       .  S
N1839      N1845   1.325       .  A
N1840      C1866   1.337       .  A
N1840      N1842   1.324       .  A
N1840     Co1856   2.096       .  S
N1841      C1855   1.335       .  A
N1842      N1870   1.323       .  A
N1842     Co1860   2.069       .  S
H1843      C1866   1.081       .  S
H1844      C1861   1.081       .  S
N1846     Co1860   2.068       .  S
N1847      N1859   1.321       .  A
N1847      N1863   1.317       .  A
N1847     Co1856   2.059       .  S
C1848      N1852   1.355       .  A
C1848      C2234   1.471       .  S
C1848      C1862   1.450       .  S
C1849      C1868   1.448       .  S
C1849      H1853   1.082       .  S
N1850      C1861   1.350       .  A
N1850     Co1860   2.103       .  S
C1854      N1870   1.346       .  A
C1854      C2238   1.459       .  S
C1854      C1866   1.454       .  S
Co1856    Cl1867   2.423       .  S
N1857      C1868   1.356       .  A
C1858      C2229   1.462       .  S
Co1860    Cl1867   2.473       .  S
C1868      C2274   1.472       .  S
N1871      C1876   1.354       .  A
N1871      C1875   1.354       .  A
N1871      H1903   1.033       .  S
N1872      C1879   1.350       .  A
N1873      C1878   1.353       .  A
N1873      C1877   1.357       .  A
N1873      H1904   1.035       .  S
N1874      C1881   1.357       .  A
C1875      C1883   1.386       .  A
C1875      C1891   1.417       .  A
C1876      C1892   1.421       .  A
C1876      C1884   1.390       .  A
C1877      C1885   1.386       .  A
C1877      C1894   1.417       .  A
C1878      C1893   1.418       .  A
C1878      C1886   1.389       .  A
C1879      C1891   1.413       .  A
C1879      C1887   1.387       .  A
C1880      C1894   1.414       .  A
C1880      C1888   1.385       .  A
C1881      C1889   1.386       .  A
C1881      C1892   1.426       .  A
C1882      C1893   1.422       .  A
C1883      H1895   1.082       .  S
C1883      C1884   1.370       .  A
C1884      H1896   1.081       .  S
C1885      H1897   1.082       .  S
C1885      C1886   1.371       .  A
C1886      H1898   1.082       .  S
C1887      H1899   1.082       .  S
C1888      H1900   1.082       .  S
C1889      H1901   1.082       .  S
C1889      C1890   1.383   1_565  A
C1891      C2104   1.475       .  S
C1894      C2041   1.485       .  S
N1905      C1910   1.351       .  A
N1905      C1909   1.355       .  A
N1905      H1937   1.034       .  S
N1906      C1914   1.351   1_556  A
N1907      C1912   1.355       .  A
N1907      C1911   1.355       .  A
N1907      H1938   1.032       .  S
N1908      C1916   1.357       .  A
C1909      C1917   1.386       .  A
C1909      C1925   1.415   1_556  A
C1910      C1926   1.417       .  A
C1910      C1918   1.390       .  A
C1911      C1919   1.387       .  A
C1911      C1928   1.418   1_556  A
C1912      C1927   1.422       .  A
C1912      C1920   1.389       .  A
C1913      C1925   1.411       .  A
C1913      C1921   1.385   1_655  A
C1914      C1928   1.415       .  A
C1914      C1922   1.387       .  A
C1915      C1923   1.387       .  A
C1915      C1926   1.423       .  A
C1916      C1924   1.386       .  A
C1916      C1927   1.427       .  A
C1917      H1929   1.082       .  S
C1917      C1918   1.371       .  A
C1918      H1930   1.082       .  S
C1919      H1931   1.082       .  S
C1919      C1920   1.371       .  A
C1920      H1932   1.082       .  S
C1921      H1933   1.082   1_455  S
C1922      H1934   1.082       .  S
C1923      H1935   1.082       .  S
C1924      H1936   1.082       .  S
C1926      C2015   1.481       .  S
C1927      C2027   1.495       .  S
N1939      C1943   1.351       .  A
N1939      H1971   1.030       .  S
N1940      C1947   1.354       .  A
N1940      C1948   1.352       .  A
N1941      C1945   1.360       .  A
N1941      H1972   1.034       .  S
N1942      C1949   1.353       .  A
N1942      C1950   1.353       .  A
C1943      C1951   1.387       .  A
C1943      C1959   1.414       .  A
C1944      C1960   1.415       .  A
C1944      C1952   1.388   1_655  A
C1945      C1953   1.386       .  A
C1945      C1962   1.429       .  A
C1946      C1961   1.430       .  A
C1946      C1954   1.387   1_655  A
C1947      C1959   1.415       .  A
C1947      C1955   1.386       .  A
C1948      C1962   1.418       .  A
C1948      C1956   1.389       .  A
C1949      C1957   1.386       .  A
C1949      C1960   1.416       .  A
C1950      C1958   1.389       .  A
C1950      C1961   1.420       .  A
C1951      H1963   1.083       .  S
C1952      H1964   1.082   1_455  S
C1953      H1965   1.082       .  S
C1954      H1966   1.082   1_455  S
C1955      H1967   1.082       .  S
C1955      C1956   1.367       .  A
C1956      H1968   1.082       .  S
C1957      H1969   1.082       .  S
C1957      C1958   1.368       .  A
C1958      H1970   1.082       .  S
C1961      C2100   1.493       .  S
C1962      C2035   1.492       .  S
N1973      C1977   1.352       .  A
N1973      H2005   1.033       .  S
N1974      C1981   1.354       .  A
N1974      C1982   1.352       .  A
N1975      C1979   1.358   1_556  A
N1975      H2006   1.034       .  S
N1976      C1983   1.353       .  A
N1976      C1984   1.352       .  A
C1977      C1985   1.388       .  A
C1977      C1993   1.414       .  A
C1978      C1994   1.417       .  A
C1978      C1986   1.387       .  A
C1979      C1987   1.388       .  A
C1979      C1996   1.427   1_554  A
C1980      C1995   1.430   1_554  A
C1980      C1988   1.386       .  A
C1981      C1993   1.414       .  A
C1981      C1989   1.385       .  A
C1982      C1996   1.420       .  A
C1982      C1990   1.390       .  A
C1983      C1991   1.386       .  A
C1983      C1994   1.416       .  A
C1984      C1992   1.389       .  A
C1984      C1995   1.418       .  A
C1985      H1997   1.082       .  S
C1986      H1998   1.082       .  S
C1987      H1999   1.082       .  S
C1988      H2000   1.082       .  S
C1989      H2001   1.083       .  S
C1989      C1990   1.370       .  A
C1990      H2002   1.082       .  S
C1991      H2003   1.082       .  S
C1991      C1992   1.368       .  A
C1992      H2004   1.082       .  S
C1993      C2011   1.476       .  S
C1994      C2021   1.476       .  S
C2007      N2008   1.343       .  A
C2007      N2012   1.362       .  A
C2007      C2218   1.464       .  S
N2008      C2009   1.350       .  A
C2009      N2010   1.354       .  A
C2009      C2221   1.465       .  S
N2010      C2011   1.359       .  A
C2011      N2012   1.363       .  A
C2013      N2014   1.358       .  A
C2013      N2018   1.358       .  A
C2013      C2213   1.472       .  S
N2014      C2015   1.359       .  A
C2015      N2016   1.362       .  A
N2016      C2017   1.361       .  A
C2017      N2018   1.359       .  A
C2017      C2209   1.483       .  S
C2019      N2020   1.357       .  A
C2019      N2024   1.349       .  A
C2019      C2201   1.468       .  S
N2020      C2021   1.361       .  A
C2021      N2022   1.361       .  A
N2022      C2023   1.357       .  A
C2023      N2024   1.350       .  A
C2023      C2205   1.468       .  S
C2025      N2026   1.365       .  A
C2025      N2030   1.361       .  A
C2025      C2197   1.488       .  S
N2026      C2027   1.365       .  A
C2027      N2028   1.360       .  A
N2028      C2029   1.361       .  A
C2029      N2030   1.360       .  A
C2029      C2194   1.480       .  S
C2031      N2032   1.359       .  A
C2031      N2036   1.363       .  A
C2031      C2185   1.481       .  S
N2032      C2033   1.361       .  A
C2033      N2034   1.362       .  A
C2033      C2189   1.485       .  S
N2034      C2035   1.363       .  A
C2035      N2036   1.362       .  A
C2037      N2038   1.358       .  A
C2037      N2042   1.362       .  A
C2037      C2177   1.482       .  S
N2038      C2039   1.359       .  A
C2039      N2040   1.359       .  A
C2039      C2181   1.478       .  S
N2040      C2041   1.359       .  A
C2041      N2042   1.361       .  A
C2043      N2061   1.345       .  A
C2043      C2193   1.475       .  S
C2043      C2080   1.466       .  S
N2044      N2061   1.322       .  A
N2044      N2066   1.316       .  A
N2044     Co2081   2.061       .  S
C2045      N2070   1.333       .  A
C2045      C2083   1.450       .  S
C2045      H2090   1.082       .  S
H2046      C2087   1.081       .  S
C2047      N2071   1.351       .  A
C2047      C2051   1.472       .  S
C2047      H2076   1.081       .  S
Co2048     N2066   2.096       .  S
Co2048     N2056   2.044       .  S
Co2048     N2088   2.050       .  S
Co2048     N2064   2.090       .  S
Co2048    Cl2092   2.470       .  S
N2049      C2087   1.346       .  A
N2049      N2056   1.324       .  A
N2049     Co2050   2.124       .  S
Co2050     N2053   2.054       .  S
Co2050     N2070   2.050       .  S
Co2050     N2057   2.124       .  S
Co2050    Cl2092   2.423       .  S
C2051      N2089   1.343       .  A
C2051      C2173   1.481       .  S
N2052      N2059   1.326       .  A
N2052      N2082   1.321       .  A
N2052     Co2085   2.071       .  S
N2053      N2071   1.316       .  A
N2053      N2089   1.322       .  A
N2054      C2083   1.354       .  A
N2054      N2064   1.329       .  A
H2055      C2080   1.081       .  S
N2056      N2077   1.317       .  A
N2057      N2075   1.325       .  A
N2057      N2062   1.328       .  A
C2058      N2062   1.355       .  A
C2058      C2178   1.481       .  S
C2058      C2086   1.458       .  S
N2059      C2074   1.344       .  A
N2059     Co2081   2.116       .  S
C2060      N2088   1.331       .  A
C2060      C2063   1.449       .  S
C2060      H2094   1.081       .  S
C2063      N2084   1.353       .  A
C2063      C2202   1.464       .  S
N2064      N2070   1.314       .  A
N2065      C2091   1.333       .  A
N2065      N2067   1.315       .  A
N2065     Co2081   2.048       .  S
N2066      C2080   1.348       .  A
N2067      N2095   1.332       .  A
N2067     Co2085   2.109       .  S
H2068      C2091   1.082       .  S
H2069      C2086   1.081       .  S
N2071     Co2085   2.110       .  S
N2072      N2084   1.326       .  A
N2072      N2088   1.322       .  A
N2072     Co2081   2.109       .  S
C2073      N2077   1.336       .  A
C2073      C2217   1.465       .  S
C2073      C2087   1.472       .  S
C2074      C2093   1.462       .  S
C2074      H2078   1.081       .  S
N2075      C2086   1.338       .  A
N2075     Co2085   2.076       .  S
C2079      N2095   1.358       .  A
C2079      C2190   1.474       .  S
C2079      C2091   1.446       .  S
Co2081    Cl2092   2.428       .  S
N2082      C2093   1.345       .  A
C2083      C2214   1.470       .  S
Co2085    Cl2092   2.474       .  S
C2093      C2169   1.468       .  S
C2096      N2097   1.363       .  A
C2096      N2101   1.363       .  A
C2096      C2174   1.487       .  S
N2097      C2098   1.363       .  A
C2098      N2099   1.362       .  A
C2098      C2165   1.480       .  S
N2099      C2100   1.360       .  A
C2100      N2101   1.362       .  A
C2102      N2103   1.356       .  A
C2102      N2107   1.353       .  A
C2102      C2161   1.472       .  S
N2103      C2104   1.360       .  A
C2104      N2105   1.362       .  A
N2105      C2106   1.358       .  A
C2106      N2107   1.351       .  A
C2106      C2170   1.474       .  S
C2108      N2126   1.346       .  A
C2108      C2222   1.452       .  S
C2108      C2145   1.453       .  S
N2109      N2126   1.320       .  A
N2109      N2131   1.322       .  A
N2109     Co2146   2.087   1_655  S
C2110      N2135   1.340       .  A
C2110      C2148   1.457       .  S
C2110      H2155   1.081       .  S
H2111      C2152   1.082       .  S
C2112      N2136   1.340       .  A
C2112      C2116   1.460       .  S
C2112      H2141   1.081       .  S
Co2113     N2129   2.063       .  S
Co2113    Cl2157   2.476       .  S
N2114      C2152   1.335       .  A
N2114      N2121   1.316       .  A
Co2115     N2135   2.103       .  S
Co2115     N2122   2.060       .  S
Co2115    Cl2157   2.425       .  S
C2116      N2154   1.350       .  A
C2116      C2182   1.474       .  S
N2117      N2124   1.315       .  A
N2117      N2147   1.332       .  A
N2118      N2136   1.323       .  A
N2118      N2154   1.325       .  A
N2119      C2148   1.344       .  A
N2119      N2129   1.320       .  A
H2120      C2145   1.081       .  S
N2121      N2142   1.330       .  A
N2122      N2140   1.317       .  A
N2122      N2127   1.321       .  A
C2123      N2127   1.343       .  A
C2123      C2186   1.480       .  S
C2123      C2151   1.470       .  S
N2124      C2139   1.334       .  A
N2124     Co2146   2.050   1_655  S
C2125      N2153   1.351       .  A
C2125      C2128   1.471       .  S
C2125      H2159   1.081       .  S
C2128      N2149   1.343       .  A
C2128      C2198   1.482       .  S
N2129      N2135   1.325       .  A
N2130      C2156   1.335       .  A
N2130      N2132   1.324       .  A
N2131      C2145   1.336       .  A
N2132      N2160   1.324       .  A
H2133      C2156   1.081       .  S
H2134      C2151   1.082       .  S
N2137      N2149   1.322       .  A
N2137      N2153   1.317       .  A
C2138      N2142   1.355       .  A
C2138      C2210   1.472       .  S
C2138      C2152   1.449       .  S
C2139      C2158   1.449       .  S
C2139      H2143   1.082       .  S
N2140      C2151   1.351       .  A
N2140     Co2150   2.105       .  S
C2144      N2160   1.349       .  A
C2144      C2162   1.459       .  S
C2144      C2156   1.451       .  S
N2147      C2158   1.358       .  A
C2148      C2206   1.460       .  S
Co2150    Cl2157   2.473       .  S
C2158      C2166   1.480       .  S
C2161      C2162   1.342       .  D
C2161      H2163   1.086       .  S
C2162      H2164   1.086       .  S
C2165      C2166   1.348       .  D
C2165      H2167   1.087       .  S
C2166      H2168   1.086       .  S
C2169      C2170   1.348       .  D
C2169      H2171   1.086       .  S
C2170      H2172   1.087       .  S
C2173      C2174   1.349       .  D
C2173      H2175   1.085       .  S
C2174      H2176   1.087       .  S
C2177      C2178   1.350       .  D
C2177      H2179   1.085       .  S
C2178      H2180   1.086       .  S
C2181      C2182   1.345       .  D
C2181      H2183   1.086       .  S
C2182      H2184   1.086       .  S
C2185      C2186   1.350       .  D
C2185      H2187   1.087       .  S
C2186      H2188   1.086       .  S
C2189      C2190   1.347       .  D
C2189      H2191   1.087       .  S
C2190      H2192   1.086       .  S
C2193      C2194   1.346       .  D
C2193      H2195   1.086       .  S
C2194      H2196   1.087       .  S
C2197      C2198   1.352       .  D
C2197      H2199   1.087       .  S
C2198      H2200   1.086       .  S
C2201      C2202   1.348       .  D
C2201      H2203   1.085       .  S
C2202      H2204   1.086       .  S
C2205      C2206   1.346       .  D
C2205      H2207   1.087       .  S
C2206      H2208   1.086       .  S
C2209      C2210   1.346       .  D
C2209      H2211   1.087       .  S
C2210      H2212   1.086       .  S
C2213      C2214   1.345       .  D
C2213      H2215   1.088       .  S
C2214      H2216   1.086       .  S
C2217      C2218   1.329       .  D
C2217      H2219   1.087       .  S
C2218      H2220   1.087       .  S
C2221      C2222   1.342       .  D
C2221      H2223   1.086       .  S
C2222      H2224   1.086       .  S
C2225      C2226   1.349       .  D
C2225      H2227   1.086       .  S
C2226      H2228   1.087       .  S
C2229      C2230   1.344       .  D
C2229      H2231   1.086       .  S
C2230      H2232   1.087       .  S
C2233      C2234   1.348       .  D
C2233      H2235   1.087       .  S
C2234      H2236   1.086       .  S
C2237      C2238   1.345       .  D
C2237      H2239   1.086       .  S
C2238      H2240   1.086       .  S
C2241      C2242   1.350       .  D
C2241      H2243   1.086       .  S
C2242      H2244   1.087       .  S
C2245      C2246   1.344       .  D
C2245      H2247   1.085       .  S
C2246      H2248   1.086       .  S
C2249      C2250   1.347       .  D
C2249      H2251   1.087       .  S
C2250      H2252   1.086       .  S
C2253      C2254   1.349       .  D
C2253      H2255   1.086       .  S
C2254      H2256   1.087       .  S
C2257      C2258   1.350       .  D
C2257      H2259   1.086       .  S
C2258      H2260   1.085       .  S
C2261      C2262   1.344       .  D
C2261      H2263   1.086       .  S
C2262      H2264   1.086       .  S
C2265      C2266   1.348       .  D
C2265      H2267   1.087       .  S
C2266      H2268   1.086       .  S
C2269      C2270   1.348       .  D
C2269      H2271   1.087       .  S
C2270      H2272   1.086       .  S
C2273      C2274   1.344       .  D
C2273      H2275   1.087       .  S
C2274      H2276   1.086       .  S
C2277      C2278   1.349       .  D
C2277      H2279   1.087       .  S
C2278      H2280   1.086       .  S
C2281      C2282   1.344       .  D
C2281      H2283   1.085       .  S
C2282      H2284   1.086       .  S
C2285      C2286   1.342       .  D
C2285      H2287   1.087       .  S
C2286      H2288   1.086       .  S
