geometry optimzed in LAMMPS
_audit_creation_date              2020-12-01 
_audit_creation_method            'lammps2cif' 
_symmetry_space_group_name_H-M    'P1' 
_symmetry_Int_Tables_number       1 
_symmetry_cell_setting            triclinic 
loop_ 
_symmetry_equiv_pos_as_xyz 
  x,y,z 
_cell_length_a                    43.7778288 
_cell_length_b                    44.05657013410158 
_cell_length_c                    36.68077173770369 
_cell_angle_alpha                 90.34224477881625 
_cell_angle_beta                  89.99035003479709 
_cell_angle_gamma                 90.0014496596598 
loop_ 
_atom_site_label 
_atom_site_type_symbol 
_atom_site_fract_x 
_atom_site_fract_y 
_atom_site_fract_z 
_atom_site_charge 
O1          O  0.18379527  0.02447459  0.06482529    -0.57200
C2          C  0.13162172  0.04787897  0.15243867     0.75500
O3          O  0.15929710  0.44641346  0.09910423    -0.58300
C4          C  0.21007611  0.51249814  0.06263924     0.75400
C5          C  0.20862193  0.98904442  0.18504616     0.77800
Cd6        Cd  0.16965062  0.99936621  0.12291911     1.37500
O7          O  0.14763707  0.05187480  0.12407345    -0.57100
O8          O  0.21336922  0.00969227  0.16201664    -0.56000
C9          C  0.13128283  0.45114134  0.09298052     0.77800
O10         O  0.18525119  0.47258837  0.17977719    -0.58300
O11         O  0.13374168  0.02202275  0.16701114    -0.56800
O12         O  0.21753875  0.49517006  0.08842699    -0.56800
O13         O  0.12155686  0.47726986  0.10118924    -0.55900
O14         O  0.34330877  0.44589748  0.38320299    -0.57200
C15         C  0.28516300  0.98870843  0.31269783     0.75500
O16         O  0.30829988  0.02889310  0.42734359    -0.58300
C17         C  0.36349528  0.45280460  0.40653325     0.75400
C18         C  0.36838174  0.04143036  0.34150443     0.77800
Cd19       Cd  0.32566110  0.49892741  0.37343663     1.37500
O20         O  0.30786540  0.47149806  0.31815002    -0.57100
O21         O  0.36965650  0.01319587  0.33572116    -0.56000
C22         C  0.28563750  0.51190531  0.43409728     0.77800
O23         O  0.34672972  0.05041123  0.36183630    -0.58300
O24         O  0.28126792  0.01016786  0.33521918    -0.56800
O25         O  0.36553827  0.48071498  0.41440354    -0.56800
O26         O  0.28166438  0.48953259  0.41289640    -0.55900
O27         O  0.46866289  0.30833907  0.05537001    -0.57200
C28         C  0.45018329  0.36944773  0.47149036     0.75500
O29         O  0.04773810  0.34954131  0.00707592    -0.58300
C30         C  0.48929329  0.28892846  0.06184246     0.75400
C31         C  0.50119829  0.29022953  0.43691182     0.77800
Cd32       Cd  0.49507216  0.32846842  0.50029951     1.37500
O33         O  0.44230121  0.34824868  0.49275529    -0.57100
O34         O  0.47695418  0.29174048  0.45551496    -0.56000
C35         C  0.04068469  0.36888849  0.03142870     0.77800
O36         O  0.02373408  0.30558210  0.44847883    -0.58300
O37         O  0.47828153  0.37118007  0.46384601    -0.56800
O38         O  0.01053232  0.28682852  0.03871592    -0.56800
O39         O  0.01271995  0.36978525  0.03980158    -0.55900
O40         O  0.47012263  0.19031135  0.19522867    -0.57200
C41         C  0.45274857  0.12795537  0.27715457     0.75500
O42         O  0.04903586  0.14620353  0.24857704    -0.58300
C43         C  0.48956312  0.21078835  0.18842048     0.75400
C44         C  0.50474584  0.21129404  0.30981518     0.77800
Cd45       Cd  0.49782796  0.16996679  0.24875370     1.37500
O46         O  0.44530039  0.14964331  0.25652835    -0.57100
O47         O  0.48065855  0.20933233  0.29092098    -0.56000
C48         C  0.04558824  0.13197030  0.21875510     0.77800
O49         O  0.02632503  0.19394342  0.30006245    -0.58300
O50         O  0.48101628  0.12530738  0.28350061    -0.56800
O51         O  0.01203735  0.21231734  0.21005136    -0.56800
O52         O  0.02024703  0.13567508  0.20278014    -0.55900
C53         C  0.46170368  0.25630669  0.10584459    -0.05100
C54         C  0.48914580  0.26992362  0.09491059     0.00800
C55         C  0.01593975  0.26553989  0.11587636    -0.07800
C56         C  0.01462006  0.24617451  0.14602033    -0.05100
C57         C  0.48752362  0.23143496  0.15644934     0.00800
C58         C  0.46027553  0.23702598  0.13639070    -0.07700
C59         C  0.42972816  0.22339924  0.14717656     0.62700
H60         H  0.44142334  0.26050760  0.08972873     0.13400
H61         H  0.03524223  0.24212463  0.16152536     0.13400
C62         C  0.04563794  0.28210240  0.10749639     0.62900
F63         F  0.40607928  0.23406100  0.12570587    -0.22200
F64         F  0.42317113  0.23091285  0.18301053    -0.19600
F65         F  0.43063625  0.19218246  0.14323161    -0.19200
F66         F  0.04015224  0.31294613  0.10491424    -0.19300
F67         F  0.05789009  0.27154702  0.07508947    -0.19600
F68         F  0.06733196  0.27787776  0.13445316    -0.22300
C69         C  0.48137606  0.25222049  0.34683758    -0.05100
C70         C  0.50646550  0.23268254  0.34155776     0.00800
C71         C  0.03107611  0.23380071  0.36696488    -0.07800
C72         C  0.02873875  0.25347031  0.39737245    -0.05100
C73         C  0.50284139  0.27158075  0.40329242     0.00800
C74         C  0.47908755  0.27167574  0.37712287    -0.07700
C75         C  0.45139751  0.29235959  0.38075081     0.62700
H76         H  0.46288146  0.25180893  0.32725726     0.13400
H77         H  0.04683442  0.25429509  0.41744990     0.13400
C78         C  0.05953562  0.21435563  0.36270621     0.62900
F79         F  0.43451419  0.29330533  0.34885709    -0.22200
F80         F  0.46058952  0.32170458  0.38876430    -0.19600
F81         F  0.43254985  0.28191661  0.40819842    -0.19200
F82         F  0.07390992  0.22113076  0.33016582    -0.19300
F83         F  0.05169698  0.18394652  0.36324745    -0.19600
F84         F  0.08032129  0.21936180  0.39054889    -0.22300
C85         C  0.41204555  0.44154231  0.43798919    -0.05100
C86         C  0.38453754  0.43027119  0.42341090     0.00800
C87         C  0.37807928  0.39872414  0.42631305    -0.07800
C88         C  0.40007457  0.37963719  0.44248461    -0.05100
C89         C  0.42780721  0.39102035  0.45603113     0.00800
C90         C  0.43364608  0.42259276  0.45465395    -0.07700
C91         C  0.46195710  0.43651963  0.47201956     0.62700
H92         H  0.41675992  0.46559602  0.43602723     0.13400
H93         H  0.39595712  0.35544426  0.44429881     0.13400
C94         C  0.34794168  0.38520855  0.41364976     0.63700
F95         F  0.46054159  0.46790565  0.47288814    -0.22200
F96         F  0.48769499  0.42833418  0.45246946    -0.19600
F97         F  0.46475443  0.42656234  0.50757416    -0.19200
F98         F  0.34539533  0.38752061  0.37619934    -0.19300
F99         F  0.32397919  0.40043118  0.43021868    -0.19600
F100        F  0.34547721  0.35479667  0.42249827    -0.22300
C101        C  0.38031700  0.09239426  0.31721290    -0.05100
C102        C  0.39058152  0.06294344  0.32500221     0.00800
C103        C  0.42143602  0.05513989  0.31737631    -0.07800
C104        C  0.44062166  0.07712887  0.30166122    -0.05100
C105        C  0.43018708  0.10640222  0.29305565     0.00800
C106        C  0.39946144  0.11432952  0.30123721    -0.07700
C107        C  0.38679733  0.14583314  0.29402089     0.62700
H108        H  0.35681094  0.09798951  0.32328471     0.13400
H109        H  0.46405824  0.07138201  0.29543099     0.13400
C110        C  0.43451414  0.02401928  0.32608030     0.62900
F111        F  0.35747703  0.14931071  0.30759585    -0.22200
F112        F  0.38572567  0.15092186  0.25688616    -0.19600
F113        F  0.40509479  0.16748081  0.31059594    -0.19200
F114        F  0.42181450  0.00247685  0.30308089    -0.19300
F115        F  0.42831840  0.01660330  0.36193304    -0.19600
F116        F  0.46590565  0.02307286  0.32152334    -0.22300
C117        C  0.21613356  0.01650254  0.49605995    -0.05100
C118        C  0.23008676  0.51685534  0.03045095     0.00800
C119        C  0.26237291  0.51961142  0.03282291    -0.07800
C120        C  0.27960850  0.51983580  0.00039923    -0.05100
C121        C  0.26569375  0.51677489  0.46618109     0.00800
C122        C  0.23339917  0.01627254  0.46375958    -0.07700
C123        C  0.21716782  0.01556591  0.42729251     0.62700
H124        H  0.19145707  0.01481383  0.49464558     0.13400
H125        H  0.30433692  0.52073258  0.00161991     0.13400
C126        C  0.27869602  0.52225076  0.06917826     0.62900
F127        F  0.18608713  0.52056630  0.43097983    -0.22200
F128        F  0.22121723  0.48752113  0.41097229    -0.19600
F129        F  0.22885995  0.03800062  0.40505737    -0.19200
F130        F  0.27694026  0.49498820  0.08742466    -0.19300
F131        F  0.26539047  0.04495023  0.08999967    -0.19600
F132        F  0.30931264  0.52931067  0.06492110    -0.22300
C133        C  0.21531796  0.48216393  0.25146071    -0.05100
C134        C  0.22887310  0.98526620  0.21702258     0.00800
C135        C  0.26119139  0.98639890  0.21413677    -0.07800
C136        C  0.27878942  0.98578461  0.24616583    -0.05100
C137        C  0.26511583  0.98502602  0.28062615     0.00800
C138        C  0.23295861  0.48251634  0.28354755    -0.07700
C139        C  0.21742097  0.48054444  0.32037432     0.62700
H140        H  0.19063401  0.48108587  0.25315972     0.13400
H141        H  0.30344873  0.98748590  0.24461927     0.13400
C142        C  0.27715423  0.98832684  0.17751439     0.62900
F143        F  0.18655307  0.97426575  0.31714771    -0.22200
F144        F  0.22047436  0.00791647  0.33853683    -0.19600
F145        F  0.23067412  0.45771649  0.34072658    -0.19200
F146        F  0.27235480  0.01663636  0.16253658    -0.19300
F147        F  0.26588962  0.46613824  0.15431266    -0.19600
F148        F  0.30837533  0.98406284  0.18063856    -0.22300
C149        C  0.08097835  0.42654272  0.09389104    -0.05100
C150        C  0.11008818  0.42778637  0.07817600     0.00800
C151        C  0.11681049  0.40892854  0.04778036    -0.07800
C152        C  0.09354464  0.38999732  0.03369793    -0.05100
C153        C  0.06396049  0.38924647  0.04889313     0.00800
C154        C  0.05776941  0.40757918  0.08022579    -0.07700
C155        C  0.02706789  0.40762475  0.09968514     0.62700
H156        H  0.07646385  0.44108372  0.11718597     0.13400
H157        H  0.09831493  0.37580475  0.01017973     0.13400
C158        C  0.14792381  0.40946153  0.02948161     0.62900
F159        F  0.02739884  0.42547391  0.13089821    -0.22200
F160        F  0.01955238  0.37844243  0.11010329    -0.19600
F161        F  0.50477630  0.41907219  0.07687295    -0.19200
F162        F  0.16987681  0.39902739  0.05341876    -0.19300
F163        F  0.15504687  0.43875963  0.01912467    -0.19600
F164        F  0.14874375  0.39121361  0.49860957    -0.22300
C165        C  0.07239423  0.11099606  0.16473144    -0.05100
C166        C  0.06958204  0.11197014  0.20288037     0.00800
C167        C  0.08818527  0.09271005  0.22434944    -0.07800
C168        C  0.10864229  0.07280666  0.20661403    -0.05100
C169        C  0.11134876  0.07166597  0.16841999     0.00800
C170        C  0.09308200  0.09132196  0.14699995    -0.07700
C171        C  0.09453465  0.09098941  0.10563703     0.62700
H172        H  0.05805175  0.12590437  0.14877782     0.13400
H173        H  0.12271957  0.05768784  0.22260218     0.13400
C174        C  0.08570741  0.09219866  0.26567492     0.62900
F175        F  0.07252662  0.10954192  0.09030968    -0.22200
F176        F  0.08981086  0.06182497  0.09264079    -0.19600
F177        F  0.12283112  0.10122563  0.09434913    -0.19200
F178        F  0.05569350  0.08721580  0.27587355    -0.19300
F179        F  0.59559394  0.11960372  0.27997589    -0.19600
F180        F  0.10335779  0.06944447  0.28078604    -0.22300
O181        O  0.18379631  0.02447480  0.56482611    -0.57200
C182        C  0.13162259  0.04787857  0.65243899     0.75500
O183        O  0.15929687  0.44641230  0.59910509    -0.58300
C184        C  0.21007671  0.51249741  0.56263934     0.75400
C185        C  0.20862286  0.98904336  0.68504602     0.77800
Cd186      Cd  0.16965150  0.99936579  0.62291922     1.37500
O187        O  0.14763786  0.05187442  0.62407370    -0.57100
O188        O  0.21337057  0.00969100  0.66201636    -0.56000
C189        C  0.13128298  0.45114096  0.59297968     0.77800
O190        O  0.18525144  0.47258803  0.67977743    -0.58300
O191        O  0.13374278  0.02202240  0.66701153    -0.56800
O192        O  0.21753870  0.49516765  0.58842573    -0.56800
O193        O  0.12155760  0.47727004  0.60118676    -0.55900
O194        O  0.34330939  0.44589792  0.88320159    -0.57200
C195        C  0.28516339  0.98870772  0.81269793     0.75500
O196        O  0.30830108  0.02889154  0.92734507    -0.58300
C197        C  0.36349590  0.45280496  0.90653188     0.75400
C198        C  0.36838173  0.04143018  0.84150421     0.77800
Cd199      Cd  0.32566120  0.49892790  0.87343656     1.37500
O200        O  0.30786597  0.47149907  0.81814963    -0.57100
O201        O  0.36965645  0.01319571  0.83572083    -0.56000
C202        C  0.28563764  0.51190516  0.93409749     0.77800
O203        O  0.34672982  0.05041099  0.86183630    -0.58300
O204        O  0.28126873  0.01016783  0.83521849    -0.56800
O205        O  0.36553855  0.48071525  0.91440278    -0.56800
O206        O  0.28166447  0.48953265  0.91289630    -0.55900
O207        O  0.46866317  0.30833993  0.55537183    -0.57200
C208        C  0.45018398  0.36944871  0.97148989     0.75500
O209        O  0.04773788  0.34953952  0.50707821    -0.58300
C210        C  0.48929368  0.28892949  0.56184454     0.75400
C211        C  0.50119955  0.29023033  0.93691076     0.77800
Cd212      Cd  0.49507235  0.32846860  0.00029866     1.37500
O213        O  0.44230157  0.34824898  0.99275366    -0.57100
O214        O  0.47695457  0.29174216  0.95551219    -0.56000
C215        C  0.04068396  0.36888934  0.53142774     0.77800
O216        O  0.02373586  0.30558155  0.94847967    -0.58300
O217        O  0.47828241  0.37118158  0.96384675    -0.56800
O218        O  0.01053261  0.28682981  0.53871720    -0.56800
O219        O  0.01271864  0.36978887  0.53979750    -0.55900
O220        O  0.47012364  0.19031105  0.69522892    -0.57200
C221        C  0.45274836  0.12795519  0.77715415     0.75500
O222        O  0.04903572  0.14620168  0.74857863    -0.58300
C223        C  0.48956345  0.21078900  0.68842214     0.75400
C224        C  0.50474661  0.21129323  0.80981618     0.77800
Cd225      Cd  0.49782827  0.16996648  0.74875434     1.37500
O226        O  0.44530036  0.14964329  0.75652806    -0.57100
O227        O  0.48065860  0.20933070  0.79092338    -0.56000
C228        C  0.04558892  0.13197002  0.71875549     0.77800
O229        O  0.02632660  0.19394360  0.80006198    -0.58300
O230        O  0.48101601  0.12530706  0.78350041    -0.56800
O231        O  0.01203787  0.21231925  0.71005366    -0.56800
O232        O  0.02024855  0.13567664  0.70277922    -0.55900
C233        C  0.46170395  0.25630859  0.60584743    -0.05100
C234        C  0.48914628  0.26992483  0.59491287     0.00800
C235        C  0.01594128  0.26554093  0.61587735    -0.07800
C236        C  0.01462174  0.24617538  0.64602121    -0.05100
C237        C  0.48752403  0.23143595  0.65645138     0.00800
C238        C  0.46027584  0.23702758  0.63639325    -0.07700
C239        C  0.42972846  0.22340091  0.64717922     0.62700
H240        H  0.44142352  0.26050999  0.58973204     0.13400
H241        H  0.03524415  0.24212480  0.66152571     0.13400
C242        C  0.04563977  0.28210260  0.60749644     0.62900
F243        F  0.40607939  0.23406358  0.62570947    -0.22200
F244        F  0.42317205  0.23091354  0.68301364    -0.19600
F245        F  0.43063617  0.19218423  0.64323295    -0.19200
F246        F  0.04015500  0.31294657  0.60491533    -0.19300
F247        F  0.05789061  0.27154742  0.57508873    -0.19600
F248        F  0.06733451  0.27787674  0.63445210    -0.22300
C249        C  0.48138101  0.25222535  0.84683324    -0.05100
C250        C  0.50646699  0.23268215  0.84155818     0.00800
C251        C  0.03107547  0.23379596  0.86696904    -0.07800
C252        C  0.02873832  0.25346594  0.89737627    -0.05100
C253        C  0.50284343  0.27158162  0.90329153     0.00800
C254        C  0.47909288  0.27168135  0.87711788    -0.07700
C255        C  0.45140707  0.29237134  0.88074086     0.62700
H256        H  0.46288885  0.25181754  0.82724942     0.13400
H257        H  0.04683155  0.25428710  0.91745690     0.13400
C258        C  0.05953143  0.21434501  0.86271543     0.62900
F259        F  0.43452741  0.29331995  0.84884453    -0.22200
F260        F  0.46060488  0.32171445  0.88875473    -0.19600
F261        F  0.43255410  0.28193331  0.90818603    -0.19200
F262        F  0.07391208  0.22111831  0.83017848    -0.19300
F263        F  0.05168616  0.18393752  0.86325332    -0.19600
F264        F  0.08031396  0.21934577  0.89056281    -0.22300
C265        C  0.41204594  0.44154305  0.93798840    -0.05100
C266        C  0.38453842  0.43027160  0.92340914     0.00800
C267        C  0.37808077  0.39872436  0.92631030    -0.07800
C268        C  0.40007598  0.37963767  0.94248238    -0.05100
C269        C  0.42780800  0.39102120  0.95603025     0.00800
C270        C  0.43364637  0.42259372  0.95465369    -0.07700
C271        C  0.46195659  0.43652100  0.97202068     0.62700
H272        H  0.41675992  0.46559679  0.93602699     0.13400
H273        H  0.39595897  0.35544458  0.94429592     0.13400
C274        C  0.34794394  0.38520825  0.91364520     0.63700
F275        F  0.46054048  0.46790700  0.97288948    -0.22200
F276        F  0.48769525  0.42833614  0.95247169    -0.19600
F277        F  0.46475294  0.42656355  0.00757531    -0.19200
F278        F  0.34539891  0.38752089  0.87619470    -0.19300
F279        F  0.32398048  0.40042998  0.93021325    -0.19600
F280        F  0.34547991  0.35479615  0.92249285    -0.22300
C281        C  0.38031693  0.09239421  0.81721295    -0.05100
C282        C  0.39058142  0.06294328  0.82500186     0.00800
C283        C  0.42143577  0.05513960  0.81737526    -0.07800
C284        C  0.44062131  0.07712857  0.80166004    -0.05100
C285        C  0.43018678  0.10640203  0.79305495     0.00800
C286        C  0.39946127  0.11432943  0.80123698    -0.07700
C287        C  0.38679716  0.14583305  0.79402069     0.62700
H288        H  0.35681099  0.09798954  0.82328521     0.13400
H289        H  0.46405775  0.07138164  0.79542933     0.13400
C290        C  0.43451387  0.02401882  0.82607843     0.62900
F291        F  0.35747702  0.14931074  0.80759609    -0.22200
F292        F  0.38572514  0.15092159  0.75688593    -0.19600
F293        F  0.40509485  0.16748076  0.81059531    -0.19200
F294        F  0.42181394  0.00247679  0.80307872    -0.19300
F295        F  0.42831846  0.01660232  0.86193110    -0.19600
F296        F  0.46590533  0.02307237  0.82152105    -0.22300
C297        C  0.21613319  0.01650273  0.99605950    -0.05100
C298        C  0.23008710  0.51685490  0.53045099     0.00800
C299        C  0.26237319  0.51961160  0.53282277    -0.07800
C300        C  0.27960858  0.51983643  0.50039897    -0.05100
C301        C  0.26569377  0.51677465  0.96618124     0.00800
C302        C  0.23339903  0.01627253  0.96375927    -0.07700
C303        C  0.21716789  0.01556610  0.92729207     0.62700
H304        H  0.19145667  0.01481428  0.99464486     0.13400
H305        H  0.30433712  0.52073372  0.50161950     0.13400
C306        C  0.27869630  0.52225092  0.56917810     0.62900
F307        F  0.18608743  0.52056756  0.93097931    -0.22200
F308        F  0.22121736  0.48752228  0.91097166    -0.19600
F309        F  0.22886096  0.03800015  0.90505664    -0.19200
F310        F  0.27694092  0.49498821  0.58742422    -0.19300
F311        F  0.26539092  0.04494994  0.59000007    -0.19600
F312        F  0.30931281  0.52931132  0.56492093    -0.22300
C313        C  0.21531819  0.48216420  0.75146072    -0.05100
C314        C  0.22887390  0.98526496  0.71702249     0.00800
C315        C  0.26119220  0.98639734  0.71413684    -0.07800
C316        C  0.27879010  0.98578312  0.74616600    -0.05100
C317        C  0.26511634  0.98502502  0.78062624     0.00800
C318        C  0.23295874  0.48251707  0.78354763    -0.07700
C319        C  0.21742094  0.48054592  0.82037437     0.62700
H320        H  0.19063425  0.48108637  0.75315965     0.13400
H321        H  0.30344940  0.98748425  0.74461956     0.13400
C322        C  0.27715523  0.98832525  0.67751457     0.62900
F323        F  0.18655327  0.97426615  0.81714751    -0.22200
F324        F  0.22047516  0.00791630  0.83853655    -0.19600
F325        F  0.23067401  0.45771842  0.84072742    -0.19200
F326        F  0.27235672  0.01663514  0.66253734    -0.19300
F327        F  0.26588931  0.46613740  0.65431263    -0.19600
F328        F  0.30837618  0.98406021  0.68063885    -0.22300
C329        C  0.08097816  0.42654298  0.59389019    -0.05100
C330        C  0.11008806  0.42778622  0.57817524     0.00800
C331        C  0.11681021  0.40892819  0.54777973    -0.07800
C332        C  0.09354410  0.38999743  0.53369708    -0.05100
C333        C  0.06395990  0.38924710  0.54889210     0.00800
C334        C  0.05776904  0.40757965  0.58022491    -0.07700
C335        C  0.02706763  0.40762507  0.59968448     0.62700
H336        H  0.07646374  0.44108412  0.61718504     0.13400
H337        H  0.09831421  0.37580480  0.51017895     0.13400
C338        C  0.14792376  0.40946026  0.52948152     0.62900
F339        F  0.02739930  0.42547267  0.63089883    -0.22200
F340        F  0.01955130  0.37844244  0.61010057    -0.19600
F341        F  0.50477689  0.41907199  0.57687660    -0.19200
F342        F  0.16987603  0.39902505  0.55341894    -0.19300
F343        F  0.15504807  0.43875820  0.51912516    -0.19600
F344        F  0.14874412  0.39121458  0.99860993    -0.22300
C345        C  0.07239503  0.11099566  0.66473187    -0.05100
C346        C  0.06958266  0.11196965  0.70288080     0.00800
C347        C  0.08818584  0.09270940  0.72434982    -0.07800
C348        C  0.10864287  0.07280606  0.70661435    -0.05100
C349        C  0.11134950  0.07166549  0.66842034     0.00800
C350        C  0.09308277  0.09132157  0.64700034    -0.07700
C351        C  0.09453540  0.09098906  0.60563741     0.62700
H352        H  0.05805261  0.12590413  0.64877816     0.13400
H353        H  0.12272017  0.05768711  0.72260253     0.13400
C354        C  0.08570809  0.09219790  0.76567531     0.62900
F355        F  0.07252754  0.10954180  0.59031011    -0.22200
F356        F  0.08981131  0.06182468  0.59264114    -0.19600
F357        F  0.12283195  0.10122502  0.59434946    -0.19200
F358        F  0.05569420  0.08721509  0.77587407    -0.19300
F359        F  0.59559413  0.11960263  0.77997714    -0.19600
F360        F  0.10335844  0.06944362  0.78078628    -0.22300
O361        O  0.18379530  0.52447470  0.06482500    -0.57200
C362        C  0.13162195  0.54787937  0.15243812     0.75500
O363        O  0.15929676  0.94641295  0.09910545    -0.58300
C364        C  0.21007597  0.01249781  0.06263943     0.75400
C365        C  0.20862237  0.48904443  0.18504580     0.77800
Cd366      Cd  0.16965086  0.49936644  0.12291892     1.37500
O367        O  0.14763708  0.55187496  0.12407268    -0.57100
O368        O  0.21336971  0.50969219  0.16201621    -0.56000
C369        C  0.13128269  0.95114102  0.09298065     0.77800
O370        O  0.18525091  0.97258819  0.17977740    -0.58300
O371        O  0.13374218  0.52202335  0.16701103    -0.56800
O372        O  0.21753847  0.99516954  0.08842704    -0.56800
O373        O  0.12155681  0.97726981  0.10118825    -0.55900
O374        O  0.34330877  0.94589774  0.38320291    -0.57200
C375        C  0.28516330  0.48870824  0.31269759     0.75500
O376        O  0.30830037  0.52889273  0.42734386    -0.58300
C377        C  0.36349544  0.95280494  0.40653292     0.75400
C378        C  0.36838226  0.54142986  0.34150442     0.77800
Cd379      Cd  0.32566093  0.99892762  0.37343668     1.37500
O380        O  0.30786594  0.97149911  0.31814922    -0.57100
O381        O  0.36965711  0.51319533  0.33572144    -0.56000
C382        C  0.28563759  0.01190510  0.43409765     0.77800
O383        O  0.34673008  0.55041081  0.36183601    -0.58300
O384        O  0.28126901  0.51016856  0.33521794    -0.56800
O385        O  0.36553847  0.98071534  0.41440308    -0.56800
O386        O  0.28166495  0.98953193  0.41289731    -0.55900
O387        O  0.46866357  0.80833910  0.05537043    -0.57200
C388        C  0.45018368  0.86944835  0.47149013     0.75500
O389        O  0.04773755  0.84954228  0.00707447    -0.58300
C390        C  0.48929399  0.78892848  0.06184279     0.75400
C391        C  0.50119879  0.79023021  0.43691137     0.77800
Cd392      Cd  0.49507251  0.82846886  0.50029915     1.37500
O393        O  0.44230156  0.84824896  0.49275454    -0.57100
O394        O  0.47695450  0.79174146  0.45551414    -0.56000
C395        C  0.04068449  0.86888847  0.03142854     0.77800
O396        O  0.02373247  0.80558240  0.44847851    -0.58300
O397        O  0.47828200  0.87118103  0.46384627    -0.56800
O398        O  0.01053140  0.78682803  0.03871486    -0.56800
O399        O  0.01271998  0.86978445  0.03980256    -0.55900
O400        O  0.47012286  0.69031159  0.19522915    -0.57200
C401        C  0.45274872  0.62795518  0.27715450     0.75500
O402        O  0.04903692  0.64620551  0.24857528    -0.58300
C403        C  0.48956360  0.71078832  0.18842084     0.75400
C404        C  0.50474591  0.71129393  0.30981556     0.77800
Cd405      Cd  0.49782814  0.66996672  0.24875404     1.37500
O406        O  0.44530049  0.64964336  0.25652866    -0.57100
O407        O  0.48065872  0.70933249  0.29092113    -0.56000
C408        C  0.04558861  0.63197091  0.21875437     0.77800
O409        O  0.02632270  0.69394030  0.30006643    -0.58300
O410        O  0.48101645  0.62530705  0.28350029    -0.56800
O411        O  0.01203930  0.71231551  0.21004919    -0.56800
O412        O  0.02024663  0.63567413  0.20278058    -0.55900
C413        C  0.46170416  0.75630766  0.10584577    -0.05100
C414        C  0.48914657  0.76992357  0.09491092     0.00800
C415        C  0.01594079  0.76553853  0.11587469    -0.07800
C416        C  0.01462123  0.74617288  0.14601839    -0.05100
C417        C  0.48752424  0.73143494  0.15644970     0.00800
C418        C  0.46027595  0.73702695  0.13639188    -0.07700
C419        C  0.42972833  0.72340125  0.14717862     0.62700
H420        H  0.44142364  0.76050932  0.08973056     0.13400
H421        H  0.03524385  0.74212167  0.16152218     0.13400
C422        C  0.04563954  0.78209958  0.10749332     0.62900
F423        F  0.40607937  0.73406389  0.12570868    -0.22200
F424        F  0.42317232  0.73091499  0.18301282    -0.19600
F425        F  0.43063524  0.69218445  0.14323354    -0.19200
F426        F  0.04015544  0.81294368  0.10491248    -0.19300
F427        F  0.05788972  0.77154423  0.07508533    -0.19600
F428        F  0.06733453  0.77787315  0.13444858    -0.22300
C429        C  0.48137704  0.75222167  0.34683676    -0.05100
C430        C  0.50646570  0.73268254  0.34155798     0.00800
C431        C  0.03107682  0.73380538  0.36696150    -0.07800
C432        C  0.02873895  0.75347450  0.39736945    -0.05100
C433        C  0.50284196  0.77158136  0.40329207     0.00800
C434        C  0.47908873  0.77167724  0.37712177    -0.07700
C435        C  0.45139962  0.79236246  0.38074863     0.62700
H436        H  0.46288288  0.75181083  0.32725573     0.13400
H437        H  0.04683668  0.75430258  0.41744414     0.13400
C438        C  0.05953988  0.71436608  0.36269828     0.62900
F439        F  0.43451694  0.79330862  0.34885447    -0.22200
F440        F  0.46059295  0.82170708  0.38876188    -0.19600
F441        F  0.43255093  0.78192074  0.40819595    -0.19200
F442        F  0.07390769  0.72114226  0.33015413    -0.19300
F443        F  0.05170790  0.68395536  0.36324400    -0.19600
F444        F  0.08032878  0.71937832  0.39053598    -0.22300
C445        C  0.41204564  0.94154283  0.43798913    -0.05100
C446        C  0.38453779  0.93027159  0.42341053     0.00800
C447        C  0.37807971  0.89872449  0.42631251    -0.07800
C448        C  0.40007509  0.87963763  0.44248399    -0.05100
C449        C  0.42780754  0.89102090  0.45603087     0.00800
C450        C  0.43364613  0.92259338  0.45465410    -0.07700
C451        C  0.46195667  0.93652044  0.47202059     0.62700
H452        H  0.41675986  0.96559660  0.43602739     0.13400
H453        H  0.39595779  0.85544453  0.44429793     0.13400
C454        C  0.34794216  0.88520880  0.41364919     0.63700
F455        F  0.46054077  0.96790645  0.47288950    -0.22200
F456        F  0.48769502  0.92833544  0.45247109    -0.19600
F457        F  0.46475344  0.92656290  0.50757515    -0.19200
F458        F  0.34539590  0.88752075  0.37619875    -0.19300
F459        F  0.32397961  0.90043142  0.43021797    -0.19600
F460        F  0.34547775  0.85479695  0.42249785    -0.22300
C461        C  0.38031733  0.59239374  0.31721284    -0.05100
C462        C  0.39058199  0.56294296  0.32500214     0.00800
C463        C  0.42143649  0.55513951  0.31737605    -0.07800
C464        C  0.44062199  0.57712860  0.30166098    -0.05100
C465        C  0.43018729  0.60640191  0.29305548     0.00800
C466        C  0.39946161  0.61432907  0.30123704    -0.07700
C467        C  0.38679723  0.64583253  0.29402044     0.62700
H468        H  0.35681123  0.59798890  0.32328471     0.13400
H469        H  0.46405863  0.57138183  0.29543068     0.13400
C470        C  0.43451474  0.52401891  0.32607979     0.62900
F471        F  0.35747686  0.64930991  0.30759524    -0.22200
F472        F  0.38572563  0.65092102  0.25688565    -0.19600
F473        F  0.40509444  0.66748047  0.31059538    -0.19200
F474        F  0.42181485  0.50247648  0.30308058    -0.19300
F475        F  0.42831942  0.51660292  0.36193263    -0.19600
F476        F  0.46590619  0.52307251  0.32152229    -0.22300
C477        C  0.21613338  0.51650248  0.49605953    -0.05100
C478        C  0.23008664  0.01685500  0.03045114     0.00800
C479        C  0.26237279  0.01961125  0.03282314    -0.07800
C480        C  0.27960842  0.01983556  0.00039949    -0.05100
C481        C  0.26569389  0.01677462  0.46618151     0.00800
C482        C  0.23339901  0.51627261  0.46375916    -0.07700
C483        C  0.21716761  0.51556578  0.42729213     0.62700
H484        H  0.19145698  0.51481362  0.49464519     0.13400
H485        H  0.30433688  0.02073247  0.00162023     0.13400
C486        C  0.27869580  0.02225081  0.06917853     0.62900
F487        F  0.18608729  0.02056615  0.43098020    -0.22200
F488        F  0.22121769  0.98752144  0.41097232    -0.19600
F489        F  0.22885987  0.53800021  0.40505668    -0.19200
F490        F  0.27694000  0.99498836  0.08742514    -0.19300
F491        F  0.26539076  0.54495007  0.08999964    -0.19600
F492        F  0.30931243  0.02931071  0.06492142    -0.22300
C493        C  0.21531751  0.98216414  0.25146112    -0.05100
C494        C  0.22887356  0.48526616  0.21702220     0.00800
C495        C  0.26119186  0.48639902  0.21413648    -0.07800
C496        C  0.27878986  0.48578460  0.24616558    -0.05100
C497        C  0.26511622  0.48502580  0.28062584     0.00800
C498        C  0.23295822  0.98251663  0.28354793    -0.07700
C499        C  0.21742057  0.98054490  0.32037472     0.62700
H500        H  0.19063361  0.98108617  0.25316017     0.13400
H501        H  0.30344917  0.48748598  0.24461911     0.13400
C502        C  0.27715478  0.48832727  0.17751416     0.62900
F503        F  0.18655336  0.47426584  0.31714725    -0.22200
F504        F  0.22047525  0.50791573  0.33853689    -0.19600
F505        F  0.23067406  0.95771741  0.34072742    -0.19200
F506        F  0.27235509  0.51663679  0.16253648    -0.19300
F507        F  0.26588876  0.96613786  0.15431303    -0.19600
F508        F  0.30837592  0.48406363  0.18063842    -0.22300
C509        C  0.08097835  0.92654217  0.09389140    -0.05100
C510        C  0.11008813  0.92778592  0.07817627     0.00800
C511        C  0.11681047  0.90892806  0.04778068    -0.07800
C512        C  0.09354456  0.88999702  0.03369804    -0.05100
C513        C  0.06396040  0.88924618  0.04889321     0.00800
C514        C  0.05776942  0.90757861  0.08022616    -0.07700
C515        C  0.02706801  0.90762392  0.09968577     0.62700
H516        H  0.07646389  0.94108312  0.11718642     0.13400
H517        H  0.09831483  0.87580456  0.01017972     0.13400
C518        C  0.14792394  0.90946078  0.02948229     0.62900
F519        F  0.02739905  0.92547292  0.13089897    -0.22200
F520        F  0.01955270  0.87844150  0.11010379    -0.19600
F521        F  0.50477682  0.91907112  0.07687435    -0.19200
F522        F  0.16987677  0.89902716  0.05342000    -0.19300
F523        F  0.15504698  0.93875870  0.01912464    -0.19600
F524        F  0.14874371  0.89121490  0.49860885    -0.22300
C525        C  0.07239378  0.61099587  0.16473056    -0.05100
C526        C  0.06958248  0.61197088  0.20287955     0.00800
C527        C  0.08818658  0.59271169  0.22434871    -0.07800
C528        C  0.10864344  0.57280810  0.20661334    -0.05100
C529        C  0.11134901  0.57166646  0.16841925     0.00800
C530        C  0.09308145  0.59132163  0.14699910    -0.07700
C531        C  0.09453301  0.59098791  0.10563612     0.62700
H532        H  0.05805063  0.62590349  0.14877688     0.13400
H533        H  0.12272133  0.55768985  0.22260159     0.13400
C534        C  0.08570986  0.59220151  0.26567431     0.62900
F535        F  0.07252462  0.60954004  0.09030883    -0.22200
F536        F  0.08980881  0.56182310  0.09264130    -0.19600
F537        F  0.12282919  0.60122372  0.09434667    -0.19200
F538        F  0.05569636  0.58721820  0.27587432    -0.19300
F539        F  0.59559393  0.61960333  0.27997671    -0.19600
F540        F  0.10336127  0.56944827  0.28078578    -0.22300
O541        O  0.18379665  0.52447544  0.56482635    -0.57200
C542        C  0.13162250  0.54787818  0.65243879     0.75500
O543        O  0.15929741  0.94641288  0.59910408    -0.58300
C544        C  0.21007682  0.01249767  0.56263982     0.75400
C545        C  0.20862289  0.48904378  0.68504567     0.77800
Cd546      Cd  0.16965142  0.49936557  0.62291878     1.37500
O547        O  0.14763827  0.55187436  0.62407398    -0.57100
O548        O  0.21337064  0.50969108  0.66201558    -0.56000
C549        C  0.13128322  0.95114110  0.59298015     0.77800
O550        O  0.18525148  0.97258760  0.67977742    -0.58300
O551        O  0.13374211  0.52202171  0.66701072    -0.56800
O552        O  0.21753927  0.99516894  0.58842701    -0.56800
O553        O  0.12155752  0.97726973  0.60118877    -0.55900
O554        O  0.34330933  0.94589732  0.88320184    -0.57200
C555        C  0.28516343  0.48870879  0.81269770     0.75500
O556        O  0.30830061  0.52889253  0.92734437    -0.58300
C557        C  0.36349598  0.95280446  0.90653191     0.75400
C558        C  0.36838183  0.54143072  0.84150415     0.77800
Cd559      Cd  0.32566118  0.99892727  0.87343669     1.37500
O560        O  0.30786588  0.97149798  0.81815007    -0.57100
O561        O  0.36965641  0.51319626  0.83572066    -0.56000
C562        C  0.28563769  0.01190461  0.93409776     0.77800
O563        O  0.34673007  0.55041158  0.86183642    -0.58300
O564        O  0.28126867  0.51016866  0.83521854    -0.56800
O565        O  0.36553872  0.98071477  0.91440261    -0.56800
O566        O  0.28166407  0.98953249  0.91289608    -0.55900
O567        O  0.46866347  0.80834010  0.55537128    -0.57200
C568        C  0.45018425  0.86944846  0.97148999     0.75500
O569        O  0.04773814  0.84953913  0.50707932    -0.58300
C570        C  0.48929379  0.78892941  0.56184373     0.75400
C571        C  0.50119935  0.79022996  0.93691086     0.77800
Cd572      Cd  0.49507274  0.82846845  0.00029875     1.37500
O573        O  0.44230185  0.84824856  0.99275352    -0.57100
O574        O  0.47695454  0.79174182  0.95551261    -0.56000
C575        C  0.04068412  0.86888996  0.53142764     0.77800
O576        O  0.02373552  0.80558068  0.94848055    -0.58300
O577        O  0.47828273  0.87118158  0.96384717    -0.56800
O578        O  0.01053353  0.78683155  0.53871915    -0.56800
O579        O  0.01271859  0.86979066  0.53979627    -0.55900
O580        O  0.47012410  0.69031064  0.69522799    -0.57200
C581        C  0.45274859  0.62795547  0.77715387     0.75500
O582        O  0.04903555  0.64620078  0.74857910    -0.58300
C583        C  0.48956377  0.71078870  0.68842116     0.75400
C584        C  0.50474666  0.71129346  0.80981558     0.77800
Cd585      Cd  0.49782852  0.66996661  0.74875383     1.37500
O586        O  0.44530060  0.64964367  0.75652793    -0.57100
O587        O  0.48065879  0.70933102  0.79092252    -0.56000
C588        C  0.04558894  0.63196962  0.71875559     0.77800
O589        O  0.02632693  0.69394418  0.80006151    -0.58300
O590        O  0.48101626  0.62530719  0.78349994    -0.56800
O591        O  0.01203736  0.71231963  0.71005477    -0.56800
O592        O  0.02024881  0.63567679  0.70277901    -0.55900
C593        C  0.46170429  0.75630733  0.60584561    -0.05100
C594        C  0.48914632  0.76992464  0.59491194     0.00800
C595        C  0.01594094  0.76554269  0.61587961    -0.07800
C596        C  0.01462125  0.74617704  0.64602339    -0.05100
C597        C  0.48752427  0.73143558  0.65645031     0.00800
C598        C  0.46027625  0.73702627  0.63639139    -0.07700
C599        C  0.42972912  0.72339864  0.64717657     0.62700
H600        H  0.44142400  0.76050804  0.58972958     0.13400
H601        H  0.03524327  0.74212735  0.66152879     0.13400
C602        C  0.04563912  0.78210532  0.60749987     0.62900
F603        F  0.40608013  0.73406035  0.62570601    -0.22200
F604        F  0.42317170  0.73091130  0.68301072    -0.19600
F605        F  0.43063794  0.69218196  0.64323065    -0.19200
F606        F  0.04015349  0.81294914  0.60491905    -0.19300
F607        F  0.05789099  0.77155084  0.57509240    -0.19600
F608        F  0.06733342  0.77787981  0.63445612    -0.22300
C609        C  0.48138006  0.75222426  0.84683386    -0.05100
C610        C  0.50646682  0.73268223  0.84155777     0.00800
C611        C  0.03107513  0.73379574  0.86696949    -0.07800
C612        C  0.02873777  0.75346565  0.89737676    -0.05100
C613        C  0.50284298  0.77158122  0.90329159     0.00800
C614        C  0.47909179  0.77168000  0.87711875    -0.07700
C615        C  0.45140506  0.79236868  0.88074276     0.62700
H616        H  0.46288748  0.75181571  0.82725076     0.13400
H617        H  0.04683099  0.75428677  0.91745762     0.13400
C618        C  0.05953117  0.71434493  0.86271589     0.62900
F619        F  0.43452465  0.79331669  0.84884697    -0.22200
F620        F  0.46060163  0.82171219  0.88875658    -0.19600
F621        F  0.43255320  0.78192958  0.90818842    -0.19200
F622        F  0.07391187  0.72111836  0.83017901    -0.19300
F623        F  0.05168602  0.68393741  0.86325364    -0.19600
F624        F  0.08031364  0.71934574  0.89056333    -0.22300
C625        C  0.41204634  0.94154258  0.93798766    -0.05100
C626        C  0.38453856  0.93027118  0.92340914     0.00800
C627        C  0.37808063  0.89872406  0.92631116    -0.07800
C628        C  0.40007592  0.87963742  0.94248314    -0.05100
C629        C  0.42780821  0.89102089  0.95603031     0.00800
C630        C  0.43364677  0.92259338  0.95465309    -0.07700
C631        C  0.46195714  0.93652075  0.97201962     0.62700
H632        H  0.41676053  0.96559643  0.93602562     0.13400
H633        H  0.39595869  0.85544430  0.94429724     0.13400
C634        C  0.34794338  0.88520813  0.91364721     0.63700
F635        F  0.46054097  0.96790676  0.97288825    -0.22200
F636        F  0.48769563  0.92833586  0.95247032    -0.19600
F637        F  0.46475385  0.92656348  0.00757428    -0.19200
F638        F  0.34539765  0.88752014  0.87619672    -0.19300
F639        F  0.32398044  0.90043051  0.93021552    -0.19600
F640        F  0.34547909  0.85479624  0.92249574    -0.22300
C641        C  0.38031715  0.59239474  0.81721294    -0.05100
C642        C  0.39058154  0.56294375  0.82500171     0.00800
C643        C  0.42143580  0.55513993  0.81737486    -0.07800
C644        C  0.44062139  0.57712884  0.80165960    -0.05100
C645        C  0.43018697  0.60640237  0.79305470     0.00800
C646        C  0.39946154  0.61432991  0.80123693    -0.07700
C647        C  0.38679755  0.64583360  0.79402078     0.62700
H648        H  0.35681125  0.59799018  0.82328534     0.13400
H649        H  0.46405776  0.57138180  0.79542873     0.13400
C650        C  0.43451378  0.52401907  0.82607792     0.62900
F651        F  0.35747752  0.64931144  0.80759648    -0.22200
F652        F  0.38572529  0.65092213  0.75688603    -0.19600
F653        F  0.40509546  0.66748121  0.81059520    -0.19200
F654        F  0.42181361  0.50247711  0.80307829    -0.19300
F655        F  0.42831850  0.51660259  0.86193062    -0.19600
F656        F  0.46590521  0.52307245  0.82152030    -0.22300
C657        C  0.21613323  0.51650325  0.99605933    -0.05100
C658        C  0.23008726  0.01685496  0.53045143     0.00800
C659        C  0.26237337  0.01961149  0.53282317    -0.07800
C660        C  0.27960879  0.01983607  0.50039937    -0.05100
C661        C  0.26569376  0.01677417  0.96618149     0.00800
C662        C  0.23339905  0.51627309  0.96375907    -0.07700
C663        C  0.21716789  0.51556680  0.92729188     0.62700
H664        H  0.19145685  0.51481494  0.99464474     0.13400
H665        H  0.30433722  0.02073319  0.50161986     0.13400
C666        C  0.27869655  0.02225099  0.56917846     0.62900
F667        F  0.18608753  0.02056752  0.93097942    -0.22200
F668        F  0.22121684  0.98752130  0.91097236    -0.19600
F669        F  0.22886053  0.53800134  0.90505686    -0.19200
F670        F  0.27694135  0.99498831  0.58742469    -0.19300
F671        F  0.26539073  0.54494987  0.58999976    -0.19600
F672        F  0.30931302  0.02931152  0.56492116    -0.22300
C673        C  0.21531814  0.98216326  0.75146098    -0.05100
C674        C  0.22887394  0.48526575  0.71702220     0.00800
C675        C  0.26119224  0.48639828  0.71413656    -0.07800
C676        C  0.27879013  0.48578433  0.74616574    -0.05100
C677        C  0.26511638  0.48502625  0.78062598     0.00800
C678        C  0.23295870  0.98251593  0.78354789    -0.07700
C679        C  0.21742089  0.98054471  0.82037462     0.62700
H680        H  0.19063421  0.98108553  0.75315990     0.13400
H681        H  0.30344944  0.48748554  0.74461929     0.13400
C682        C  0.27715528  0.48832593  0.67751427     0.62900
F683        F  0.18655335  0.47426722  0.81714729    -0.22200
F684        F  0.22047508  0.50791761  0.83853615    -0.19600
F685        F  0.23067386  0.95771706  0.84072754    -0.19200
F686        F  0.27235669  0.51663567  0.66253669    -0.19300
F687        F  0.26588919  0.96613695  0.65431265    -0.19600
F688        F  0.30837624  0.48406101  0.68063861    -0.22300
C689        C  0.08097861  0.92654276  0.59389079    -0.05100
C690        C  0.11008837  0.92778638  0.57817551     0.00800
C691        C  0.11681042  0.90892874  0.54777960    -0.07800
C692        C  0.09354421  0.88999821  0.53369667    -0.05100
C693        C  0.06396015  0.88924756  0.54889203     0.00800
C694        C  0.05776954  0.90757941  0.58022545    -0.07700
C695        C  0.02706849  0.90762389  0.59968584     0.62700
H696        H  0.07646428  0.94108348  0.61718592     0.13400
H697        H  0.09831416  0.87580595  0.51017819     0.13400
C698        C  0.14792401  0.90946074  0.52948149     0.62900
F699        F  0.02740077  0.92546995  0.63090144    -0.22200
F700        F  0.01955235  0.87844076  0.61010010    -0.19600
F701        F  0.50477703  0.91907280  0.57687475    -0.19200
F702        F  0.16987599  0.89902445  0.55341862    -0.19300
F703        F  0.15504896  0.93875881  0.51912626    -0.19600
F704        F  0.14874457  0.89121321  0.99861115    -0.22300
C705        C  0.07239529  0.61099555  0.66473193    -0.05100
C706        C  0.06958264  0.61196918  0.70288086     0.00800
C707        C  0.08818547  0.59270853  0.72434979    -0.07800
C708        C  0.10864255  0.57280526  0.70661426    -0.05100
C709        C  0.11134946  0.57166507  0.66842027     0.00800
C710        C  0.09308302  0.59132145  0.64700035    -0.07700
C711        C  0.09453594  0.59098925  0.60563744     0.62700
H712        H  0.05805316  0.62590423  0.64877831     0.13400
H713        H  0.12271960  0.55768606  0.72260235     0.13400
C714        C  0.08570724  0.59219644  0.76567522     0.62900
F715        F  0.07252814  0.60954204  0.59031012    -0.22200
F716        F  0.08981202  0.56182495  0.59264080    -0.19600
F717        F  0.12283256  0.60122535  0.59434990    -0.19200
F718        F  0.05569321  0.58721357  0.77587334    -0.19300
F719        F  0.59559463  0.61960284  0.77997662    -0.19600
F720        F  0.10335733  0.56944188  0.78078602    -0.22300
O721        O  0.68379554  0.02447448  0.06482553    -0.57200
C722        C  0.63162181  0.04787890  0.15243843     0.75500
O723        O  0.65929668  0.44641267  0.09910513    -0.58300
C724        C  0.71007634  0.51249728  0.06263961     0.75400
C725        C  0.70862223  0.98904455  0.18504620     0.77800
Cd726      Cd  0.66965081  0.99936615  0.12291920     1.37500
O727        O  0.64763749  0.05187480  0.12407349    -0.57100
O728        O  0.71336978  0.00969201  0.16201625    -0.56000
C729        C  0.63128262  0.45114097  0.09298051     0.77800
O730        O  0.68525075  0.47258784  0.17977773    -0.58300
O731        O  0.63374151  0.02202263  0.16701081    -0.56800
O732        O  0.71753850  0.49516838  0.08842676    -0.56800
O733        O  0.62155693  0.47726975  0.10118841    -0.55900
O734        O  0.84330836  0.44589716  0.38320275    -0.57200
C735        C  0.78516313  0.98870852  0.31269801     0.75500
O736        O  0.80830018  0.02889282  0.42734449    -0.58300
C737        C  0.86349494  0.45280417  0.40653296     0.75400
C738        C  0.86838189  0.04143016  0.34150468     0.77800
Cd739      Cd  0.82566090  0.49892727  0.37343680     1.37500
O740        O  0.80786509  0.47149781  0.31815041    -0.57100
O741        O  0.86965638  0.01319567  0.33572128    -0.56000
C742        C  0.78563752  0.51190506  0.43409778     0.77800
O743        O  0.84673006  0.05041116  0.36183676    -0.58300
O744        O  0.78126881  0.01016883  0.33521836    -0.56800
O745        O  0.86553800  0.48071452  0.41440340    -0.56800
O746        O  0.78166427  0.48953244  0.41289678    -0.55900
O747        O  0.96866280  0.30833811  0.05536928    -0.57200
C748        C  0.95018322  0.36944737  0.47148967     0.75500
O749        O  0.54773760  0.34954140  0.00707570    -0.58300
C750        C  0.98929326  0.28892765  0.06184208     0.75400
C751        C  0.00119915  0.29023002  0.43691115     0.77800
Cd752      Cd  0.99507230  0.32846841  0.50029902     1.37500
O753        O  0.94230114  0.34824795  0.49275407    -0.57100
O754        O  0.97695486  0.29174074  0.45551397    -0.56000
C755        C  0.54068420  0.36888887  0.03142814     0.77800
O756        O  0.52373336  0.30558159  0.44847916    -0.58300
O757        O  0.97828155  0.37118021  0.46384595    -0.56800
O758        O  0.51053196  0.28682903  0.03871585    -0.56800
O759        O  0.51271941  0.36978604  0.03980069    -0.55900
O760        O  0.97012209  0.19031117  0.19522910    -0.57200
C761        C  0.95274867  0.12795490  0.27715448     0.75500
O762        O  0.54903641  0.14620429  0.24857608    -0.58300
C763        C  0.98956247  0.21078823  0.18842083     0.75400
C764        C  0.00474582  0.21129372  0.30981562     0.77800
Cd765      Cd  0.99782772  0.16996666  0.24875403     1.37500
O766        O  0.94530046  0.14964269  0.25652803    -0.57100
O767        O  0.98065757  0.20933047  0.29092336    -0.56000
C768        C  0.54558847  0.13197048  0.21875459     0.77800
O769        O  0.52632438  0.19394220  0.30006384    -0.58300
O770        O  0.98101635  0.12530716  0.28350090    -0.56800
O771        O  0.51203807  0.21231726  0.21005093    -0.56800
O772        O  0.52024694  0.13567466  0.20278013    -0.55900
C773        C  0.96170348  0.25630540  0.10584369    -0.05100
C774        C  0.98914554  0.26992281  0.09491024     0.00800
C775        C  0.51594031  0.26554006  0.11587601    -0.07800
C776        C  0.51462077  0.24617439  0.14601973    -0.05100
C777        C  0.98752302  0.23143463  0.15644946     0.00800
C778        C  0.96027519  0.23702486  0.13638998    -0.07700
C779        C  0.92972796  0.22339738  0.14717505     0.62700
H780        H  0.94142339  0.26050578  0.08972729     0.13400
H781        H  0.53524313  0.24212396  0.16152422     0.13400
C782        C  0.54563860  0.28210226  0.10749564     0.62900
F783        F  0.90607925  0.23405831  0.12570349    -0.22200
F784        F  0.92316994  0.23091112  0.18300873    -0.19600
F785        F  0.93063699  0.19218059  0.14323051    -0.19200
F786        F  0.54015331  0.31294613  0.10491441    -0.19300
F787        F  0.55789004  0.27154728  0.07508816    -0.19600
F788        F  0.56733306  0.27787682  0.13445173    -0.22300
C789        C  0.98137820  0.25222289  0.34683558    -0.05100
C790        C  0.00646599  0.23268249  0.34155781     0.00800
C791        C  0.53107680  0.23380296  0.36696306    -0.07800
C792        C  0.52873903  0.25347209  0.39737106    -0.05100
C793        C  0.00284254  0.27158140  0.40329176     0.00800
C794        C  0.97909005  0.27167853  0.37712053    -0.07700
C795        C  0.95140201  0.29236526  0.38074639     0.62700
H796        H  0.96288462  0.25181305  0.32725370     0.13400
H797        H  0.54683565  0.25429844  0.41744714     0.13400
C798        C  0.55953827  0.21436108  0.36270183     0.62900
F799        F  0.93452004  0.29331212  0.34885173    -0.22200
F800        F  0.96059682  0.32170941  0.38875966    -0.19600
F801        F  0.93255216  0.28192477  0.40819326    -0.19200
F802        F  0.57390917  0.22113713  0.33015958    -0.19300
F803        F  0.55170328  0.18395108  0.36324497    -0.19600
F804        F  0.58032557  0.21937029  0.39054200    -0.22300
C805        C  0.91204517  0.44154187  0.43798888    -0.05100
C806        C  0.88453725  0.43027070  0.42341042     0.00800
C807        C  0.87807915  0.39872359  0.42631227    -0.07800
C808        C  0.90007454  0.37963667  0.44248365    -0.05100
C809        C  0.92780706  0.39101989  0.45603041     0.00800
C810        C  0.93364573  0.42259235  0.45465358    -0.07700
C811        C  0.96195654  0.43651933  0.47201956     0.62700
H812        H  0.91675944  0.46559562  0.43602714     0.13400
H813        H  0.89595721  0.35544358  0.44429758     0.13400
C814        C  0.84794160  0.38520796  0.41364888     0.63700
F815        F  0.96054067  0.46790533  0.47288866    -0.22200
F816        F  0.98769458  0.42833439  0.45246943    -0.19600
F817        F  0.96475385  0.42656168  0.50757400    -0.19200
F818        F  0.84539529  0.38752008  0.37619847    -0.19300
F819        F  0.82397904  0.40043048  0.43021779    -0.19600
F820        F  0.84547720  0.35479605  0.42249732    -0.22300
C821        C  0.88031729  0.09239404  0.31721332    -0.05100
C822        C  0.89058170  0.06294312  0.32500231     0.00800
C823        C  0.92143605  0.05513935  0.31737580    -0.07800
C824        C  0.94062171  0.07712830  0.30166070    -0.05100
C825        C  0.93018721  0.10640174  0.29305547     0.00800
C826        C  0.89946168  0.11432919  0.30123734    -0.07700
C827        C  0.88679759  0.14583279  0.29402084     0.62700
H828        H  0.85681136  0.09798943  0.32328549     0.13400
H829        H  0.96405818  0.07138137  0.29543014     0.13400
C830        C  0.93451397  0.02401850  0.32607902     0.62900
F831        F  0.85747738  0.14931051  0.30759598    -0.22200
F832        F  0.88572575  0.15092125  0.25688605    -0.19600
F833        F  0.90509519  0.16748055  0.31059552    -0.19200
F834        F  0.92181372  0.00247645  0.30307959    -0.19300
F835        F  0.92831873  0.01660222  0.36193180    -0.19600
F836        F  0.96590539  0.02307178  0.32152131    -0.22300
C837        C  0.71613334  0.01650302  0.49606035    -0.05100
C838        C  0.73008700  0.51685452  0.03045136     0.00800
C839        C  0.76237316  0.51961058  0.03282339    -0.07800
C840        C  0.77960879  0.51983499  0.00039974    -0.05100
C841        C  0.76569379  0.51677460  0.46618165     0.00800
C842        C  0.73339890  0.01627292  0.46375995    -0.07700
C843        C  0.71716743  0.01556627  0.42729296     0.62700
H844        H  0.69145685  0.01481437  0.49464606     0.13400
H845        H  0.80433722  0.52073174  0.00162048     0.13400
C846        C  0.77869615  0.52224992  0.06917880     0.62900
F847        F  0.68608727  0.52056689  0.43098030    -0.22200
F848        F  0.72121701  0.48752134  0.41097276    -0.19600
F849        F  0.72885949  0.03800097  0.40505775    -0.19200
F850        F  0.77694022  0.49498741  0.08742526    -0.19300
F851        F  0.76539070  0.04495003  0.09000005    -0.19600
F852        F  0.80931282  0.52930972  0.06492175    -0.22300
C853        C  0.71531766  0.48216362  0.25146110    -0.05100
C854        C  0.72887342  0.98526644  0.21702264     0.00800
C855        C  0.76119172  0.98639903  0.21413690    -0.07800
C856        C  0.77878971  0.98578458  0.24616600    -0.05100
C857        C  0.76511606  0.98502605  0.28062627     0.00800
C858        C  0.73295830  0.48251637  0.28354795    -0.07700
C859        C  0.71742062  0.48054522  0.32037477     0.62700
H860        H  0.69063374  0.48108583  0.25316011     0.13400
H861        H  0.80344902  0.98748575  0.24461951     0.13400
C862        C  0.77715464  0.98832710  0.17751456     0.62900
F863        F  0.68655310  0.97426681  0.31714771    -0.22200
F864        F  0.72047524  0.00791648  0.33853729    -0.19600
F865        F  0.73067344  0.45771738  0.34072751    -0.19200
F866        F  0.77235525  0.01663668  0.16253691    -0.19300
F867        F  0.76588887  0.46613694  0.15431292    -0.19600
F868        F  0.80837573  0.98406309  0.18063878    -0.22300
C869        C  0.58097807  0.42654254  0.09389095    -0.05100
C870        C  0.61008790  0.42778614  0.07817590     0.00800
C871        C  0.61681015  0.40892845  0.04778013    -0.07800
C872        C  0.59354421  0.38999749  0.03369745    -0.05100
C873        C  0.56396006  0.38924669  0.04889265     0.00800
C874        C  0.55776908  0.40757914  0.08022555    -0.07700
C875        C  0.52706761  0.40762454  0.09968504     0.62700
H876        H  0.57646364  0.44108342  0.11718594     0.13400
H877        H  0.59831443  0.37580507  0.01017913     0.13400
C878        C  0.64792358  0.40946123  0.02948163     0.62900
F879        F  0.52739875  0.42547321  0.13089851    -0.22200
F880        F  0.51955198  0.37844209  0.11010256    -0.19600
F881        F  0.00477659  0.41907194  0.07687270    -0.19200
F882        F  0.66987629  0.39902657  0.05341883    -0.19300
F883        F  0.65504709  0.43875934  0.01912517    -0.19600
F884        F  0.64874388  0.39121421  0.49860916    -0.22300
C885        C  0.57239392  0.11099560  0.16473086    -0.05100
C886        C  0.56958225  0.11197031  0.20287983     0.00800
C887        C  0.58818600  0.09271076  0.22434899    -0.07800
C888        C  0.60864291  0.07280722  0.20661364    -0.05100
C889        C  0.61134886  0.07166594  0.16841959     0.00800
C890        C  0.59308162  0.09132140  0.14699943    -0.07700
C891        C  0.59453363  0.09098802  0.10563648     0.62700
H892        H  0.55805101  0.12590351  0.14877712     0.13400
H893        H  0.62272057  0.05768875  0.22260187     0.13400
C894        C  0.58570887  0.09220015  0.26567454     0.62900
F895        F  0.57252544  0.10954031  0.09030908    -0.22200
F896        F  0.58980954  0.06182333  0.09264122    -0.19600
F897        F  0.62282996  0.10122389  0.09434761    -0.19200
F898        F  0.55569519  0.08721720  0.27587407    -0.19300
F899        F  0.09559251  0.11960184  0.27997731    -0.19600
F900        F  0.60335975  0.06944644  0.28078587    -0.22300
O901        O  0.68379634  0.02447542  0.56482674    -0.57200
C902        C  0.63162282  0.04787856  0.65243932     0.75500
O903        O  0.65929731  0.44641254  0.59910415    -0.58300
C904        C  0.71007658  0.51249741  0.56263987     0.75400
C905        C  0.70862307  0.98904364  0.68504597     0.77800
Cd906      Cd  0.66965154  0.99936581  0.62291941     1.37500
O907        O  0.64763782  0.05187427  0.62407380    -0.57100
O908        O  0.71337100  0.00969089  0.66201588    -0.56000
C909        C  0.63128309  0.45114062  0.59298027     0.77800
O910        O  0.68525151  0.47258758  0.67977758    -0.58300
O911        O  0.63374320  0.02202250  0.66701212    -0.56800
O912        O  0.71753903  0.49516870  0.58842709    -0.56800
O913        O  0.62155726  0.47726919  0.60118896    -0.55900
O914        O  0.84330998  0.44589754  0.88320112    -0.57200
C915        C  0.78516325  0.98870870  0.81269829     0.75500
O916        O  0.80830116  0.02889212  0.92734547    -0.58300
C917        C  0.86349636  0.45280452  0.90653158     0.75400
C918        C  0.86838151  0.04143133  0.84150468     0.77800
Cd919      Cd  0.82566137  0.49892745  0.87343678     1.37500
O920        O  0.80786622  0.47149882  0.81814958    -0.57100
O921        O  0.86965632  0.01319687  0.83572123    -0.56000
C922        C  0.78563797  0.51190452  0.93409795     0.77800
O923        O  0.84672954  0.05041204  0.86183676    -0.58300
O924        O  0.78126784  0.01016792  0.83521987    -0.56800
O925        O  0.86553867  0.48071474  0.91440299    -0.56800
O926        O  0.78166457  0.48953224  0.91289646    -0.55900
O927        O  0.96866326  0.30833948  0.55537098    -0.57200
C928        C  0.95018475  0.36944853  0.97148966     0.75500
O929        O  0.54773807  0.34953904  0.50707852    -0.58300
C930        C  0.98929395  0.28892926  0.56184381     0.75400
C931        C  0.00120083  0.29023050  0.93691038     0.77800
Cd932      Cd  0.99507295  0.32846824  0.00029865     1.37500
O933        O  0.94230215  0.34824851  0.99275291    -0.57100
O934        O  0.97695569  0.29174202  0.95551153    -0.56000
C935        C  0.54068426  0.36888904  0.53142789     0.77800
O936        O  0.52373475  0.30558135  0.94847968    -0.58300
O937        O  0.97828329  0.37118166  0.96384724    -0.56800
O938        O  0.51053219  0.28682981  0.53871777    -0.56800
O939        O  0.51271892  0.36978894  0.53979746    -0.55900
O940        O  0.97012452  0.19031084  0.69522809    -0.57200
C941        C  0.95274827  0.12795605  0.77715417     0.75500
O942        O  0.54903616  0.14620259  0.74857786    -0.58300
C943        C  0.98956400  0.21078921  0.68842172     0.75400
C944        C  0.00474740  0.21129365  0.80981589     0.77800
Cd945      Cd  0.99782850  0.16996693  0.74875419     1.37500
O946        O  0.94530032  0.14964444  0.75652849    -0.57100
O947        O  0.98065872  0.20933025  0.79092444    -0.56000
C948        C  0.54558902  0.13197004  0.71875539     0.77800
O949        O  0.52632544  0.19394223  0.80006358    -0.58300
O950        O  0.98101597  0.12530745  0.78349986    -0.56800
O951        O  0.51203775  0.21231846  0.71005350    -0.56800
O952        O  0.52024819  0.13567562  0.70277980    -0.55900
C953        C  0.96170449  0.25630793  0.60584642    -0.05100
C954        C  0.98914664  0.26992469  0.59491218     0.00800
C955        C  0.51594107  0.26554031  0.61587755    -0.07800
C956        C  0.51462136  0.24617481  0.64602142    -0.05100
C957        C  0.98752460  0.23143601  0.65645084     0.00800
C958        C  0.96027646  0.23702711  0.63639240    -0.07700
C959        C  0.92972921  0.22340016  0.64717828     0.62700
H960        H  0.94142412  0.26050885  0.58973072     0.13400
H961        H  0.53524383  0.24212376  0.66152560     0.13400
C962        C  0.54564002  0.28210097  0.60749603     0.62900
F963        F  0.90608006  0.23406274  0.62570861    -0.22200
F964        F  0.92317272  0.23091258  0.68301275    -0.19600
F965        F  0.93063718  0.19218349  0.64323182    -0.19200
F966        F  0.54015632  0.31294514  0.60491517    -0.19300
F967        F  0.55788997  0.27154542  0.57508802    -0.19600
F968        F  0.56733506  0.27787426  0.63445116    -0.22300
C969        C  0.98138378  0.25222809  0.84683098    -0.05100
C970        C  0.00646825  0.23268263  0.84155774     0.00800
C971        C  0.53107545  0.23379782  0.86696767    -0.07800
C972        C  0.52873806  0.25346772  0.89737494    -0.05100
C973        C  0.00284500  0.27158210  0.90329101     0.00800
C974        C  0.97909587  0.27168413  0.87711564    -0.07700
C975        C  0.95141190  0.29237677  0.88073680     0.62700
H976        H  0.96289277  0.25182212  0.82724572     0.13400
H977        H  0.54683237  0.25429058  0.91745428     0.13400
C978        C  0.55953312  0.21434966  0.86271191     0.62900
F979        F  0.93453360  0.29332670  0.84883954    -0.22200
F980        F  0.96061231  0.32171904  0.88875086    -0.19600
F981        F  0.93255683  0.28194084  0.90818108    -0.19200
F982        F  0.57391068  0.22112343  0.83017316    -0.19300
F983        F  0.55169104  0.18394140  0.86325197    -0.19600
F984        F  0.58031720  0.21935337  0.89055690    -0.22300
C985        C  0.91204662  0.44154275  0.93798770    -0.05100
C986        C  0.88453911  0.43027121  0.92340852     0.00800
C987        C  0.87808167  0.39872392  0.92630945    -0.07800
C988        C  0.90007688  0.37963735  0.94248173    -0.05100
C989        C  0.92780882  0.39102097  0.95602973     0.00800
C990        C  0.93364718  0.42259351  0.95465291    -0.07700
C991        C  0.96195753  0.43652091  0.97201946     0.62700
H992        H  0.91676048  0.46559653  0.93602626     0.13400
H993        H  0.89595993  0.35544422  0.94429528     0.13400
C994        C  0.84794510  0.38520762  0.91364375     0.63700
F995        F  0.96054151  0.46790692  0.97288780    -0.22200
F996        F  0.98769605  0.42833582  0.95247032    -0.19600
F997        F  0.96475411  0.42656382  0.00757420    -0.19200
F998        F  0.84540040  0.38752063  0.87619326    -0.19300
F999        F  0.82398132  0.40042895  0.93021170    -0.19600
F1000       F  0.84548130  0.35479541  0.92249091    -0.22300
C1001       C  0.88031687  0.09239549  0.81721375    -0.05100
C1002       C  0.89058122  0.06294447  0.82500242     0.00800
C1003       C  0.92143548  0.05514063  0.81737542    -0.07800
C1004       C  0.94062102  0.07712954  0.80166013    -0.05100
C1005       C  0.93018661  0.10640304  0.79305516     0.00800
C1006       C  0.89946117  0.11433059  0.80123745    -0.07700
C1007       C  0.88679706  0.14583415  0.79402080     0.62700
H1008       H  0.85681096  0.09799096  0.82328630     0.13400
H1009       H  0.96405742  0.07138244  0.79542912     0.13400
C1010       C  0.93451343  0.02401967  0.82607799     0.62900
F1011       F  0.85747692  0.14931195  0.80759615    -0.22200
F1012       F  0.88572503  0.15092234  0.75688596    -0.19600
F1013       F  0.90509474  0.16748201  0.81059511    -0.19200
F1014       F  0.92181344  0.00247805  0.80307777    -0.19300
F1015       F  0.92831796  0.01660263  0.86193048    -0.19600
F1016       F  0.96590491  0.02307317  0.82152066    -0.22300
C1017       C  0.71613343  0.01650253  0.99605983    -0.05100
C1018       C  0.73008707  0.51685478  0.53045154     0.00800
C1019       C  0.76237320  0.51961118  0.53282335    -0.07800
C1020       C  0.77960865  0.51983590  0.50039956    -0.05100
C1021       C  0.76569409  0.51677396  0.96618172     0.00800
C1022       C  0.73339932  0.01627259  0.96375964    -0.07700
C1023       C  0.71716821  0.01556654  0.92729240     0.62700
H1024       H  0.69145706  0.01481405  0.99464517     0.13400
H1025       H  0.80433709  0.52073294  0.50162011     0.13400
C1026       C  0.77869637  0.52225031  0.56917868     0.62900
F1027       F  0.68608778  0.52056748  0.93097977    -0.22200
F1028       F  0.72121754  0.48752213  0.91097184    -0.19600
F1029       F  0.72886110  0.03800103  0.90505749    -0.19200
F1030       F  0.77694100  0.49498751  0.58742461    -0.19300
F1031       F  0.76539085  0.04495038  0.59000037    -0.19600
F1032       F  0.80931288  0.52931069  0.56492150    -0.22300
C1033       C  0.71531803  0.48216400  0.75146115    -0.05100
C1034       C  0.72887401  0.98526554  0.71702255     0.00800
C1035       C  0.76119232  0.98639782  0.71413705    -0.07800
C1036       C  0.77879005  0.98578399  0.74616633    -0.05100
C1037       C  0.76511621  0.98502614  0.78062652     0.00800
C1038       C  0.73295863  0.48251667  0.78354802    -0.07700
C1039       C  0.71742085  0.48054524  0.82037476     0.62700
H1040       H  0.69063409  0.48108622  0.75316010     0.13400
H1041       H  0.80344951  0.98748509  0.74461996     0.13400
C1042       C  0.77715550  0.98832503  0.67751481     0.62900
F1043       F  0.68655291  0.97426708  0.81714718    -0.22200
F1044       F  0.72047444  0.00791745  0.83853652    -0.19600
F1045       F  0.73067383  0.45771745  0.84072744    -0.19200
F1046       F  0.77235724  0.01663470  0.66253688    -0.19300
F1047       F  0.76588903  0.46613695  0.65431310    -0.19600
F1048       F  0.80837640  0.98405982  0.68063936    -0.22300
C1049       C  0.58097866  0.42654187  0.59389108    -0.05100
C1050       C  0.61008833  0.42778579  0.57817565     0.00800
C1051       C  0.61681041  0.40892822  0.54777966    -0.07800
C1052       C  0.59354427  0.38999759  0.53369681    -0.05100
C1053       C  0.56396029  0.38924664  0.54889231     0.00800
C1054       C  0.55776968  0.40757836  0.58022590    -0.07700
C1055       C  0.52706876  0.40762248  0.59968656     0.62700
H1056       H  0.57646430  0.44108258  0.61718645     0.13400
H1057       H  0.59831425  0.37580536  0.51017806     0.13400
C1058       C  0.64792394  0.40946048  0.52948144     0.62900
F1059       F  0.52740095  0.42546875  0.63090200    -0.22200
F1060       F  0.51955319  0.37843928  0.61010115    -0.19600
F1061       F  0.00477656  0.41907398  0.57687299    -0.19200
F1062       F  0.66987618  0.39902488  0.55341867    -0.19300
F1063       F  0.65504834  0.43875853  0.51912561    -0.19600
F1064       F  0.64874381  0.39121457  0.99860970    -0.22300
C1065       C  0.57239488  0.11099528  0.66473181    -0.05100
C1066       C  0.56958287  0.11196978  0.70288075     0.00800
C1067       C  0.58818646  0.09271003  0.72434992    -0.07800
C1068       C  0.60864348  0.07280659  0.70661458    -0.05100
C1069       C  0.61134974  0.07166552  0.66842055     0.00800
C1070       C  0.59308266  0.09132115  0.64700040    -0.07700
C1071       C  0.59453497  0.09098808  0.60563746     0.62700
H1072       H  0.55805216  0.12590336  0.64877800     0.13400
H1073       H  0.62272104  0.05768798  0.72260285     0.13400
C1074       C  0.58570913  0.09219916  0.76567546     0.62900
F1075       F  0.57252680  0.10954038  0.59031003    -0.22200
F1076       F  0.58981109  0.06182347  0.59264182    -0.19600
F1077       F  0.62283134  0.10122418  0.59434900    -0.19200
F1078       F  0.55569541  0.08721611  0.77587474    -0.19300
F1079       F  0.09559334  0.11960102  0.77997776    -0.19600
F1080       F  0.60335995  0.06944536  0.78078671    -0.22300
O1081       O  0.68379594  0.52447467  0.06482589    -0.57200
C1082       C  0.63162221  0.54787877  0.15243886     0.75500
O1083       O  0.65929698  0.94641292  0.09910542    -0.58300
C1084       C  0.71007618  0.01249757  0.06263969     0.75400
C1085       C  0.70862222  0.48904353  0.18504609     0.77800
Cd1086     Cd  0.66965087  0.49936575  0.12291920     1.37500
O1087       O  0.64763738  0.55187443  0.12407346    -0.57100
O1088       O  0.71336996  0.50969097  0.16201618    -0.56000
C1089       C  0.63128297  0.95114116  0.09298033     0.77800
O1090       O  0.68525091  0.97258865  0.17977788    -0.58300
O1091       O  0.63374230  0.52202264  0.16701155    -0.56800
O1092       O  0.71753859  0.99516922  0.08842727    -0.56800
O1093       O  0.62155716  0.97726998  0.10118789    -0.55900
O1094       O  0.84330864  0.94589791  0.38320315    -0.57200
C1095       C  0.78516306  0.48870806  0.31269787     0.75500
O1096       O  0.80830042  0.52889242  0.42734437    -0.58300
C1097       C  0.86349531  0.95280506  0.40653319     0.75400
C1098       C  0.86838220  0.54142971  0.34150458     0.77800
Cd1099     Cd  0.82566085  0.99892774  0.37343705     1.37500
O1100       O  0.80786524  0.97149835  0.31815045    -0.57100
O1101       O  0.86965725  0.51319512  0.33572204    -0.56000
C1102       C  0.78563734  0.01190538  0.43409792     0.77800
O1103       O  0.84672979  0.55041073  0.36183576    -0.58300
O1104       O  0.78126890  0.51016853  0.33521802    -0.56800
O1105       O  0.86553834  0.98071543  0.41440349    -0.56800
O1106       O  0.78166418  0.98953272  0.41289695    -0.55900
O1107       O  0.96866348  0.80833947  0.05537055    -0.57200
C1108       C  0.95018335  0.86944829  0.47149031     0.75500
O1109       O  0.54773808  0.84954146  0.00707530    -0.58300
C1110       C  0.98929334  0.78892811  0.06184219     0.75400
C1111       C  0.00119739  0.79022989  0.43691209     0.77800
Cd1112     Cd  0.99507215  0.82846903  0.50029968     1.37500
O1113       O  0.94230136  0.84824985  0.49275617    -0.57100
O1114       O  0.97695376  0.79174051  0.45551615    -0.56000
C1115       C  0.54068479  0.86888875  0.03142801     0.77800
O1116       O  0.52373396  0.80558195  0.44847904    -0.58300
O1117       O  0.97828149  0.87118012  0.46384521    -0.56800
O1118       O  0.51053255  0.78682904  0.03871603    -0.56800
O1119       O  0.51272005  0.86978577  0.03980085    -0.55900
O1120       O  0.97012169  0.69031230  0.19522988    -0.57200
C1121       C  0.95274877  0.62795498  0.27715450     0.75500
O1122       O  0.54903654  0.64620399  0.24857683    -0.58300
C1123       C  0.98956328  0.71078792  0.18842018     0.75400
C1124       C  0.00474518  0.71129442  0.30981509     0.77800
Cd1125     Cd  0.99782790  0.66996678  0.24875376     1.37500
O1126       O  0.94530047  0.64964313  0.25652867    -0.57100
O1127       O  0.98065925  0.70933490  0.29091811    -0.56000
C1128       C  0.54558881  0.63197038  0.21875517     0.77800
O1129       O  0.52632429  0.69394180  0.30006448    -0.58300
O1130       O  0.98101652  0.62530694  0.28350019    -0.56800
O1131       O  0.51203869  0.71231693  0.21005112    -0.56800
O1132       O  0.52024742  0.63567478  0.20278044    -0.55900
C1133       C  0.96170357  0.75630725  0.10584512    -0.05100
C1134       C  0.98914595  0.76992315  0.09491022     0.00800
C1135       C  0.51594138  0.76553893  0.11587549    -0.07800
C1136       C  0.51462173  0.74617333  0.14601927    -0.05100
C1137       C  0.98752376  0.73143450  0.15644899     0.00800
C1138       C  0.96027540  0.73702655  0.13639125    -0.07700
C1139       C  0.92972772  0.72340099  0.14717808     0.62700
H1140       H  0.94142302  0.76050899  0.08972998     0.13400
H1141       H  0.53524423  0.74212210  0.16152314     0.13400
C1142       C  0.54564023  0.78209980  0.10749412     0.62900
F1143       F  0.90607888  0.73406311  0.12570757    -0.22200
F1144       F  0.92317146  0.73091549  0.18301199    -0.19600
F1145       F  0.93063470  0.69218412  0.14323393    -0.19200
F1146       F  0.54015626  0.81294391  0.10491288    -0.19300
F1147       F  0.55789051  0.77154413  0.07508634    -0.19600
F1148       F  0.56733508  0.77787352  0.13444957    -0.22300
C1149       C  0.98137330  0.75221835  0.34683978    -0.05100
C1150       C  0.00646430  0.73268273  0.34155795     0.00800
C1151       C  0.53107643  0.73380198  0.36696414    -0.07800
C1152       C  0.52873889  0.75347147  0.39737180    -0.05100
C1153       C  0.00284001  0.77158088  0.40329279     0.00800
C1154       C  0.97908457  0.77167341  0.37712521    -0.07700
C1155       C  0.95139240  0.79235420  0.38075553     0.62700
H1156       H  0.96287744  0.75180492  0.32726099     0.13400
H1157       H  0.54683502  0.75429713  0.41744849     0.13400
C1158       C  0.55953698  0.71435856  0.36270425     0.62900
F1159       F  0.93450724  0.79329835  0.34886313    -0.22200
F1160       F  0.96058146  0.82170015  0.38876870    -0.19600
F1161       F  0.93254742  0.78190879  0.40820443    -0.19200
F1162       F  0.57390930  0.72113376  0.33016264    -0.19300
F1163       F  0.55170029  0.68394899  0.36324714    -0.19600
F1164       F  0.58032366  0.71936671  0.39054534    -0.22300
C1165       C  0.91204582  0.94154274  0.43798852    -0.05100
C1166       C  0.88453765  0.93027166  0.42341066     0.00800
C1167       C  0.87807921  0.89872468  0.42631324    -0.07800
C1168       C  0.90007453  0.87963772  0.44248472    -0.05100
C1169       C  0.92780729  0.89102085  0.45603093     0.00800
C1170       C  0.93364631  0.92259321  0.45465338    -0.07700
C1171       C  0.96195736  0.93652009  0.47201889     0.62700
H1172       H  0.91676031  0.96559642  0.43602626     0.13400
H1173       H  0.89595694  0.85544478  0.44429921     0.13400
C1174       C  0.84794133  0.88520928  0.41365062     0.63700
F1175       F  0.96054201  0.96790613  0.47288706    -0.22200
F1176       F  0.98769525  0.92833433  0.45246899    -0.19600
F1177       F  0.96475454  0.92656311  0.50757362    -0.19200
F1178       F  0.84539461  0.88752091  0.37620019    -0.19300
F1179       F  0.82397918  0.90043238  0.43021962    -0.19600
F1180       F  0.84547660  0.85479755  0.42249972    -0.22300
C1181       C  0.88031728  0.59239349  0.31721261    -0.05100
C1182       C  0.89058199  0.56294277  0.32500224     0.00800
C1183       C  0.92143655  0.55513938  0.31737645    -0.07800
C1184       C  0.94062213  0.57712846  0.30166140    -0.05100
C1185       C  0.93018737  0.60640171  0.29305557     0.00800
C1186       C  0.89946162  0.61432878  0.30123678    -0.07700
C1187       C  0.88679716  0.64583218  0.29401985     0.62700
H1188       H  0.85681127  0.59798858  0.32328421     0.13400
H1189       H  0.96405874  0.57138176  0.29543140     0.13400
C1190       C  0.93451479  0.52401881  0.32608040     0.62900
F1191       F  0.85747660  0.64930944  0.30759408    -0.22200
F1192       F  0.88572602  0.65092061  0.25688503    -0.19600
F1193       F  0.90509406  0.66748022  0.31059510    -0.19200
F1194       F  0.92181490  0.50247628  0.30308133    -0.19300
F1195       F  0.92831946  0.51660300  0.36193329    -0.19600
F1196       F  0.96590625  0.52307236  0.32152291    -0.22300
C1197       C  0.71613342  0.51650256  0.49606004    -0.05100
C1198       C  0.73008688  0.01685472  0.03045148     0.00800
C1199       C  0.76237301  0.01961100  0.03282356    -0.07800
C1200       C  0.77960868  0.01983547  0.00039995    -0.05100
C1201       C  0.76569364  0.01677491  0.46618181     0.00800
C1202       C  0.73339906  0.51627262  0.46375969    -0.07700
C1203       C  0.71716769  0.51556602  0.42729264     0.62700
H1204       H  0.69145693  0.51481390  0.49464561     0.13400
H1205       H  0.80433707  0.02073241  0.00162071     0.13400
C1206       C  0.77869597  0.02225052  0.06917899     0.62900
F1207       F  0.68608691  0.02056652  0.43098078    -0.22200
F1208       F  0.72121721  0.98752178  0.41097276    -0.19600
F1209       F  0.72886023  0.53800034  0.40505722    -0.19200
F1210       F  0.77694002  0.99498810  0.08742564    -0.19300
F1211       F  0.76539090  0.54494932  0.09000005    -0.19600
F1212       F  0.80931265  0.02931026  0.06492195    -0.22300
C1213       C  0.71531777  0.98216448  0.25146116    -0.05100
C1214       C  0.72887333  0.48526528  0.21702255     0.00800
C1215       C  0.76119163  0.48639777  0.21413681    -0.07800
C1216       C  0.77878960  0.48578360  0.24616593    -0.05100
C1217       C  0.76511594  0.48502545  0.28062620     0.00800
C1218       C  0.73295844  0.98251687  0.28354799    -0.07700
C1219       C  0.71742076  0.98054517  0.32037477     0.62700
H1220       H  0.69063386  0.98108661  0.25316017     0.13400
H1221       H  0.80344892  0.48748474  0.24461942     0.13400
C1222       C  0.77715459  0.48832564  0.17751449     0.62900
F1223       F  0.68655291  0.47426701  0.31714783    -0.22200
F1224       F  0.72047527  0.50791673  0.33853680    -0.19600
F1225       F  0.73067372  0.95771716  0.34072710    -0.19200
F1226       F  0.77235560  0.51663531  0.16253690    -0.19300
F1227       F  0.76588921  0.96613820  0.15431306    -0.19600
F1228       F  0.80837561  0.48406118  0.18063874    -0.22300
C1229       C  0.58097869  0.92654231  0.09389099    -0.05100
C1230       C  0.61008840  0.92778622  0.07817571     0.00800
C1231       C  0.61681066  0.90892869  0.04777981    -0.07800
C1232       C  0.59354475  0.88999765  0.03369710    -0.05100
C1233       C  0.56396069  0.88924656  0.04889254     0.00800
C1234       C  0.55776980  0.90757870  0.08022572    -0.07700
C1235       C  0.52706860  0.90762348  0.09968580     0.62700
H1236       H  0.57646429  0.94108301  0.11718605     0.13400
H1237       H  0.59831493  0.87580543  0.01017865     0.13400
C1238       C  0.64792404  0.90946170  0.02948123     0.62900
F1239       F  0.52739994  0.92547176  0.13089958    -0.22200
F1240       F  0.51955352  0.87844079  0.11010294    -0.19600
F1241       F  0.00477652  0.91907112  0.07687360    -0.19200
F1242       F  0.66987693  0.89902746  0.05341847    -0.19300
F1243       F  0.65504719  0.93875983  0.01912450    -0.19600
F1244       F  0.64874427  0.89121432  0.49860944    -0.22300
C1245       C  0.57239442  0.61099562  0.16473150    -0.05100
C1246       C  0.56958265  0.61197023  0.20288045     0.00800
C1247       C  0.58818633  0.59271058  0.22434958    -0.07800
C1248       C  0.60864328  0.57280709  0.20661419    -0.05100
C1249       C  0.61134929  0.57166585  0.16842013     0.00800
C1250       C  0.59308206  0.59132139  0.14700002    -0.07700
C1251       C  0.59453399  0.59098808  0.10563707     0.62700
H1252       H  0.55805157  0.62590365  0.14877776     0.13400
H1253       H  0.62272092  0.55768853  0.22260244     0.13400
C1254       C  0.58570903  0.59219979  0.26567511     0.62900
F1255       F  0.57252556  0.60954015  0.09030978    -0.22200
F1256       F  0.58981016  0.56182337  0.09264175    -0.19600
F1257       F  0.62283019  0.60122426  0.09434815    -0.19200
F1258       F  0.55569533  0.58721667  0.27587442    -0.19300
F1259       F  0.09559462  0.61960539  0.27997509    -0.19600
F1260       F  0.60335994  0.56944608  0.28078641    -0.22300
O1261       O  0.68379601  0.52447445  0.56482610    -0.57200
C1262       C  0.63162243  0.54787811  0.65243907     0.75500
O1263       O  0.65929762  0.94641310  0.59910369    -0.58300
C1264       C  0.71007672  0.01249802  0.56264016     0.75400
C1265       C  0.70862268  0.48904366  0.68504613     0.77800
Cd1266     Cd  0.66965127  0.49936544  0.62291927     1.37500
O1267       O  0.64763769  0.55187394  0.62407378    -0.57100
O1268       O  0.71337018  0.50969126  0.66201637    -0.56000
C1269       C  0.63128332  0.95114110  0.59298024     0.77800
O1270       O  0.68525148  0.97258808  0.67977780    -0.58300
O1271       O  0.63374250  0.52202194  0.66701162    -0.56800
O1272       O  0.71753907  0.99516886  0.58842699    -0.56800
O1273       O  0.62155746  0.97726955  0.60118943    -0.55900
O1274       O  0.84330917  0.94589800  0.88320232    -0.57200
C1275       C  0.78516341  0.48870827  0.81269802     0.75500
O1276       O  0.80830113  0.52889170  0.92734508    -0.58300
C1277       C  0.86349617  0.95280511  0.90653197     0.75400
C1278       C  0.86838191  0.54143054  0.84150471     0.77800
Cd1279     Cd  0.82566124  0.99892804  0.87343698     1.37500
O1280       O  0.80786653  0.97149976  0.81814943    -0.57100
O1281       O  0.86965677  0.51319607  0.83572143    -0.56000
C1282       C  0.78563796  0.01190495  0.93409820     0.77800
O1283       O  0.84672982  0.55041131  0.86183655    -0.58300
O1284       O  0.78126849  0.51016789  0.83521917    -0.56800
O1285       O  0.86553923  0.98071547  0.91440233    -0.56800
O1286       O  0.78166450  0.98953279  0.91289654    -0.55900
O1287       O  0.96866288  0.80833954  0.55537130    -0.57200
C1288       C  0.95018427  0.86944882  0.97149002     0.75500
O1289       O  0.54773825  0.84954015  0.50707751    -0.58300
C1290       C  0.98929422  0.78893019  0.56184500     0.75400
C1291       C  0.00120018  0.79023038  0.93691065     0.77800
Cd1292     Cd  0.99507252  0.82846848  0.00029867     1.37500
O1293       O  0.94230167  0.84824857  0.99275293    -0.57100
O1294       O  0.97695470  0.79174280  0.95551111    -0.56000
C1295       C  0.54068456  0.86888939  0.53142780     0.77800
O1296       O  0.52373465  0.80558099  0.94847951    -0.58300
O1297       O  0.97828283  0.87118213  0.96384774    -0.56800
O1298       O  0.51053228  0.78682969  0.53871693    -0.56800
O1299       O  0.51271939  0.86978844  0.53979831    -0.55900
O1300       O  0.97012466  0.69031054  0.69522822    -0.57200
C1301       C  0.95274856  0.62795533  0.77715429     0.75500
O1302       O  0.54903657  0.64620298  0.74857728    -0.58300
C1303       C  0.98956381  0.71078934  0.68842239     0.75400
C1304       C  0.00474718  0.71129320  0.80981637     0.77800
Cd1305     Cd  0.99782852  0.66996655  0.74875448     1.37500
O1306       O  0.94530056  0.64964335  0.75652807    -0.57100
O1307       O  0.98065802  0.70932870  0.79092593    -0.56000
C1308       C  0.54558913  0.63196998  0.71875515     0.77800
O1309       O  0.52632551  0.69394239  0.80006318    -0.58300
O1310       O  0.98101621  0.62530721  0.78350058    -0.56800
O1311       O  0.51203796  0.71231844  0.71005267    -0.56800
O1312       O  0.52024812  0.63567520  0.70277987    -0.55900
C1313       C  0.96170486  0.75630744  0.60584621    -0.05100
C1314       C  0.98914673  0.76992553  0.59491334     0.00800
C1315       C  0.51594081  0.76554115  0.61587745    -0.07800
C1316       C  0.51462125  0.74617546  0.64602114    -0.05100
C1317       C  0.98752443  0.73143637  0.65645165     0.00800
C1318       C  0.96027673  0.73702626  0.63639187    -0.07700
C1319       C  0.92972983  0.72339746  0.64717581     0.62700
H1320       H  0.94142478  0.76050752  0.58972953     0.13400
H1321       H  0.53524364  0.74212518  0.66152596     0.13400
C1322       C  0.54563915  0.78210323  0.60749699     0.62900
F1323       F  0.90608091  0.73405888  0.62570494    -0.22200
F1324       F  0.92317147  0.73090915  0.68301001    -0.19600
F1325       F  0.93063979  0.69218088  0.64322896    -0.19200
F1326       F  0.54015404  0.81294714  0.60491616    -0.19300
F1327       F  0.55789030  0.77154842  0.57508928    -0.19600
F1328       F  0.56733378  0.77787740  0.63445280    -0.22300
C1329       C  0.98138355  0.75222786  0.84683111    -0.05100
C1330       C  0.00646797  0.73268234  0.84155809     0.00800
C1331       C  0.53107583  0.73379885  0.86696643    -0.07800
C1332       C  0.52873828  0.75346844  0.89737398    -0.05100
C1333       C  0.00284444  0.77158184  0.90329135     0.00800
C1334       C  0.97909551  0.77168397  0.87711568    -0.07700
C1335       C  0.95141166  0.79237680  0.88073641     0.62700
H1336       H  0.96289262  0.75182192  0.82724558     0.13400
H1337       H  0.54683299  0.75429199  0.91745262     0.13400
C1338       C  0.55953437  0.71435213  0.86270945     0.62900
F1339       F  0.93453377  0.79332692  0.84883884    -0.22200
F1340       F  0.96061217  0.82171900  0.88875070    -0.19600
F1341       F  0.93255617  0.78194095  0.90818032    -0.19200
F1342       F  0.57391051  0.72112653  0.83016999    -0.19300
F1343       F  0.55169391  0.68394347  0.86325004    -0.19600
F1344       F  0.58031911  0.71935701  0.89055344    -0.22300
C1345       C  0.91204647  0.94154314  0.93798793    -0.05100
C1346       C  0.88453874  0.93027176  0.92340915     0.00800
C1347       C  0.87808090  0.89872459  0.92631085    -0.07800
C1348       C  0.90007614  0.87963792  0.94248287    -0.05100
C1349       C  0.92780833  0.89102136  0.95603033     0.00800
C1350       C  0.93364688  0.92259385  0.95465332    -0.07700
C1351       C  0.96195726  0.93652117  0.97201989     0.62700
H1352       H  0.91676062  0.96559688  0.93602610     0.13400
H1353       H  0.89595896  0.85544482  0.94429676     0.13400
C1354       C  0.84794383  0.88520857  0.91364644     0.63700
F1355       F  0.96054103  0.96790716  0.97288887    -0.22200
F1356       F  0.98769570  0.92833646  0.95247038    -0.19600
F1357       F  0.96475412  0.92656364  0.00757443    -0.19200
F1358       F  0.84539830  0.88752097  0.87619597    -0.19300
F1359       F  0.82398069  0.90043057  0.93021482    -0.19600
F1360       F  0.84547973  0.85479656  0.92249445    -0.22300
C1361       C  0.88031729  0.59239469  0.81721388    -0.05100
C1362       C  0.89058164  0.56294366  0.82500249     0.00800
C1363       C  0.92143591  0.55513984  0.81737554    -0.07800
C1364       C  0.94062143  0.57712873  0.80166015    -0.05100
C1365       C  0.93018699  0.60640224  0.79305525     0.00800
C1366       C  0.89946161  0.61432983  0.80123774    -0.07700
C1367       C  0.88679763  0.64583352  0.79402162     0.62700
H1368       H  0.85681140  0.59799016  0.82328643     0.13400
H1369       H  0.96405781  0.57138168  0.79542911     0.13400
C1370       C  0.93451394  0.52401897  0.82607847     0.62900
F1371       F  0.85747772  0.64931146  0.80759766    -0.22200
F1372       F  0.88572509  0.65092194  0.75688685    -0.19600
F1373       F  0.90509572  0.66748115  0.81059573    -0.19200
F1374       F  0.92181391  0.50247708  0.80307864    -0.19300
F1375       F  0.92831859  0.51660231  0.86193110    -0.19600
F1376       F  0.96590539  0.52307247  0.82152100    -0.22300
C1377       C  0.71613353  0.51650259  0.99605974    -0.05100
C1378       C  0.73008709  0.01685542  0.53045179     0.00800
C1379       C  0.76237321  0.01961187  0.53282350    -0.07800
C1380       C  0.77960858  0.01983638  0.50039966    -0.05100
C1381       C  0.76569403  0.01677428  0.96618192     0.00800
C1382       C  0.73339935  0.51627254  0.96375951    -0.07700
C1383       C  0.71716821  0.51556657  0.92729230     0.62700
H1384       H  0.69145703  0.51481433  0.99464514     0.13400
H1385       H  0.80433704  0.02073345  0.50162014     0.13400
C1386       C  0.77869641  0.02225137  0.56917878     0.62900
F1387       F  0.68608780  0.02056761  0.93097980    -0.22200
F1388       F  0.72121743  0.98752202  0.91097208    -0.19600
F1389       F  0.72886098  0.53800120  0.90505749    -0.19200
F1390       F  0.77694115  0.99498872  0.58742507    -0.19300
F1391       F  0.76539086  0.54494919  0.59000051    -0.19600
F1392       F  0.80931289  0.02931182  0.56492145    -0.22300
C1393       C  0.71531811  0.98216422  0.75146100    -0.05100
C1394       C  0.72887374  0.48526559  0.71702263     0.00800
C1395       C  0.76119203  0.48639804  0.71413692    -0.07800
C1396       C  0.77878997  0.48578397  0.74616605    -0.05100
C1397       C  0.76511628  0.48502580  0.78062633     0.00800
C1398       C  0.73295852  0.98251706  0.78354800    -0.07700
C1399       C  0.71742047  0.98054581  0.82037459     0.62700
H1400       H  0.69063415  0.98108652  0.75315977     0.13400
H1401       H  0.80344929  0.48748513  0.74461954     0.13400
C1402       C  0.77715498  0.48832562  0.67751457     0.62900
F1403       F  0.68655323  0.47426672  0.81714764    -0.22200
F1404       F  0.72047513  0.50791673  0.83853693    -0.19600
F1405       F  0.73067341  0.95771824  0.84072765    -0.19200
F1406       F  0.77235626  0.51663528  0.66253683    -0.19300
F1407       F  0.76588939  0.96613643  0.65431335    -0.19600
F1408       F  0.80837596  0.48406082  0.68063883    -0.22300
C1409       C  0.58097875  0.92654264  0.59389073    -0.05100
C1410       C  0.61008854  0.92778631  0.57817554     0.00800
C1411       C  0.61681071  0.90892857  0.54777975    -0.07800
C1412       C  0.59354461  0.88999784  0.53369696    -0.05100
C1413       C  0.56396053  0.88924708  0.54889224     0.00800
C1414       C  0.55776976  0.90757918  0.58022546    -0.07700
C1415       C  0.52706859  0.90762390  0.59968559     0.62700
H1416       H  0.57646434  0.94108344  0.61718584     0.13400
H1417       H  0.59831470  0.87580543  0.51017847     0.13400
C1418       C  0.64792425  0.90946079  0.52948155     0.62900
F1419       F  0.52740039  0.92547106  0.63090029    -0.22200
F1420       F  0.51955284  0.87844102  0.61010125    -0.19600
F1421       F  0.00477698  0.91907389  0.57687574    -0.19200
F1422       F  0.66987653  0.89902542  0.55341887    -0.19300
F1423       F  0.65504856  0.93875879  0.51912544    -0.19600
F1424       F  0.64874444  0.89121484  0.99860948    -0.22300
C1425       C  0.57239462  0.61099491  0.66473155    -0.05100
C1426       C  0.56958287  0.61196962  0.70288052     0.00800
C1427       C  0.58818650  0.59270994  0.72434970    -0.07800
C1428       C  0.60864337  0.57280634  0.70661436    -0.05100
C1429       C  0.61134942  0.57166510  0.66842031     0.00800
C1430       C  0.59308227  0.59132063  0.64700016    -0.07700
C1431       C  0.59453433  0.59098730  0.60563721     0.62700
H1432       H  0.55805187  0.62590288  0.64877779     0.13400
H1433       H  0.62272096  0.55768780  0.72260261     0.13400
C1434       C  0.58570938  0.59219934  0.76567526     0.62900
F1435       F  0.57252606  0.60953949  0.59030979    -0.22200
F1436       F  0.58981039  0.56182261  0.59264188    -0.19600
F1437       F  0.62283062  0.60122334  0.59434842    -0.19200
F1438       F  0.55569568  0.58721655  0.77587483    -0.19300
F1439       F  0.09559240  0.61959931  0.77997844    -0.19600
F1440       F  0.60336013  0.56944552  0.78078658    -0.22300
loop_ 
_geom_bond_atom_site_label_1 
_geom_bond_atom_site_label_2 
_geom_bond_distance 
_geom_bond_site_symmetry_2 
_ccdc_geom_bond_type 
O1           Cd6   2.485   1_545  S
O1          C364   1.268       .  A
C2           O11   1.265       .  A
C2            O7   1.268       .  A
C2          C169   1.491       .  S
O3         Cd366   2.527       .  S
O3            C9   1.264       .  A
C4           O12   1.262       .  A
C4          O361   1.268       .  A
C4          C118   1.483       .  S
C5            O8   1.262   1_565  A
C5          O370   1.268       .  A
C5          C134   1.481       .  S
Cd6          O11   2.462   1_565  S
Cd6           O7   2.506   1_565  S
Cd6           O8   2.433   1_565  S
Cd6         O363   2.527       .  S
Cd6         O373   2.451       .  S
Cd6         O372   2.455       .  S
Cd6         O370   2.498       .  S
C9           O13   1.262       .  A
C9          C150   1.486       .  S
O10        Cd366   2.498       .  S
O10         C365   1.268       .  A
O12        Cd366   2.455       .  S
O13        Cd366   2.451       .  S
O14         Cd19   2.489       .  S
O14          C17   1.266       .  A
C15          O24   1.263   1_565  A
C15         O380   1.267       .  A
C15         C137   1.476       .  S
O16        Cd379   2.490   1_545  S
O16         C382   1.268       .  A
C17          O25   1.265       .  A
C17          C86   1.492       .  S
C18          O23   1.268       .  A
C18          O21   1.262       .  A
C18         C102   1.489       .  S
Cd19         O26   2.446       .  S
Cd19         O25   2.442       .  S
Cd19         O20   2.480       .  S
Cd19        O376   2.490       .  S
Cd19        O384   2.449       .  S
Cd19        O383   2.488       .  S
Cd19        O381   2.455       .  S
O20         C375   1.267       .  A
O21        Cd379   2.455   1_545  S
C22          O26   1.264       .  A
C22         O376   1.268       .  A
C22         C121   1.480       .  S
O23        Cd379   2.488   1_545  S
O24        Cd379   2.449   1_545  S
O27        Cd212   2.495       .  S
O27          C30   1.267       .  A
C28          O37   1.264       .  A
C28          O33   1.268       .  A
C28          C89   1.480       .  S
O29        Cd932   2.497   1_455  S
O29          C35   1.269       .  A
C30         O758   1.262       .  A
C30          C54   1.478       .  S
C31          O34   1.263       .  A
C31         O756   1.268       .  A
C31          C73   1.479       .  S
Cd32         O37   2.429       .  S
Cd32         O33   2.485       .  S
Cd32         O34   2.432       .  S
Cd32        O207   2.495       .  S
Cd32        O929   2.497       .  S
Cd32        O939   2.445       .  S
Cd32        O938   2.417       .  S
Cd32        O756   2.486       .  S
C35          O39   1.263       .  A
C35         C153   1.499       .  S
O36        Cd752   2.486   1_455  S
O36         C751   1.268       .  A
O38        Cd932   2.417   1_455  S
O38         C750   1.262   1_455  A
O39        Cd932   2.445   1_455  S
O40         Cd45   2.480       .  S
O40          C43   1.266       .  A
C41          O50   1.265       .  A
C41          O46   1.265       .  A
C41         C105   1.491       .  S
O42        Cd765   2.474   1_455  S
O42          C48   1.267       .  A
C43         O771   1.266       .  A
C43          C57   1.491       .  S
C44          O47   1.265       .  A
C44         O769   1.265       .  A
C44          C70   1.495       .  S
Cd45         O50   2.463       .  S
Cd45         O46   2.485       .  S
Cd45         O47   2.436       .  S
Cd45        O762   2.474       .  S
Cd45        O772   2.461       .  S
Cd45        O771   2.432       .  S
Cd45        O769   2.488       .  S
C48          O52   1.266       .  A
C48         C166   1.487       .  S
O49        Cd765   2.488   1_455  S
O49         C764   1.265       .  A
O51        Cd765   2.432   1_455  S
O51         C763   1.266   1_455  A
O52        Cd765   2.461   1_455  S
C53          C54   1.402       .  A
C53          C58   1.411       .  A
C53          H60   1.083       .  S
C54         C775   1.417       .  A
C55          C56   1.402       .  A
C55         C774   1.417   1_455  A
C55          C62   1.523       .  S
C56         C777   1.406   1_455  A
C56          H61   1.082       .  S
C57          C58   1.424       .  A
C57         C776   1.406       .  A
C58          C59   1.519       .  S
C59          F63   1.385       .  S
C59          F64   1.384       .  S
C59          F65   1.383       .  S
C62          F66   1.384       .  S
C62          F67   1.382       .  S
C62          F68   1.385       .  S
C69          C70   1.408       .  A
C69          C74   1.403       .  A
C69          H76   1.082       .  S
C70         C791   1.425       .  A
C71          C72   1.412       .  A
C71         C790   1.425       .  A
C71          C78   1.520       .  S
C72         C793   1.402       .  A
C72          H77   1.082       .  S
C73          C74   1.415       .  A
C73         C792   1.402       .  A
C74          C75   1.522       .  S
C75          F79   1.385       .  S
C75          F80   1.384       .  S
C75          F81   1.383       .  S
C78          F82   1.383       .  S
C78          F83   1.383       .  S
C78          F84   1.385       .  S
C85          C86   1.407       .  A
C85          C90   1.404       .  A
C85          H92   1.082       .  S
C86          C87   1.423       .  A
C87          C88   1.412       .  A
C87          C94   1.519       .  S
C88          C89   1.403       .  A
C88          H93   1.083       .  S
C89          C90   1.415       .  A
C90          C91   1.521       .  S
C91          F95   1.384       .  S
C91          F96   1.382       .  S
C91          F97   1.384       .  S
C94          F98   1.383       .  S
C94          F99   1.384       .  S
C94         F100   1.385       .  S
C101        C102   1.404       .  A
C101        C106   1.409       .  A
C101        H108   1.081       .  S
C102        C103   1.421       .  A
C103        C104   1.408       .  A
C103        C110   1.521       .  S
C104        C105   1.406       .  A
C104        H109   1.081       .  S
C105        C106   1.421       .  A
C106        C107   1.519       .  S
C107        F111   1.385       .  S
C107        F112   1.383       .  S
C107        F113   1.383       .  S
C110        F114   1.383       .  S
C110        F115   1.384       .  S
C110        F116   1.385       .  S
C117        C122   1.405       .  A
C117        C658   1.402       .  A
C117        H124   1.084       .  S
C118        C119   1.421       .  A
C118        C657   1.402   1_554  A
C119        C120   1.408       .  A
C119        C126   1.517       .  S
C120        C301   1.401   1_554  A
C120        H125   1.084       .  S
C121        C300   1.401       .  A
C121        C482   1.417       .  A
C122        C481   1.417       .  A
C122        C123   1.515       .  S
C123        F129   1.383       .  S
C123        F487   1.385       .  S
C123        F488   1.381   1_545  S
C126        F130   1.381       .  S
C126        F132   1.385       .  S
C126        F491   1.383       .  S
F127        C483   1.385       .  S
F128        C483   1.381       .  S
F131        C486   1.383       .  S
C133        C138   1.408       .  A
C133        C494   1.403       .  A
C133        H140   1.083       .  S
C134        C135   1.420       .  A
C134        C493   1.403       .  A
C135        C136   1.405       .  A
C135        C142   1.517       .  S
C136        C137   1.399       .  A
C136        H141   1.084       .  S
C137        C498   1.416       .  A
C138        C497   1.416       .  A
C138        C139   1.515       .  S
C139        F145   1.384       .  S
C139        F503   1.384       .  S
C139        F504   1.381       .  S
C142        F146   1.382   1_565  S
C142        F148   1.385       .  S
C142        F507   1.383       .  S
F143        C499   1.384       .  S
F144        C499   1.381   1_545  S
F147        C502   1.383       .  S
C149        C150   1.400       .  A
C149        C154   1.406       .  A
C149        H156   1.083       .  S
C150        C151   1.417       .  A
C151        C152   1.412       .  A
C151        C158   1.519       .  S
C152        C153   1.410       .  A
C152        H157   1.083       .  S
C153        C154   1.427       .  A
C154        C155   1.522       .  S
C155        F159   1.385       .  S
C155        F160   1.383       .  S
C155        F881   1.383       .  S
C158        F162   1.382       .  S
C158        F163   1.383       .  S
C158        F344   1.385   1_554  S
F161        C875   1.383       .  S
F164        C338   1.385       .  S
C165        C166   1.405       .  A
C165        C170   1.410       .  A
C165        H172   1.083       .  S
C166        C167   1.418       .  A
C167        C168   1.410       .  A
C167        C174   1.520       .  S
C168        C169   1.407       .  A
C168        H173   1.083       .  S
C169        C170   1.420       .  A
C170        C171   1.519       .  S
C171        F175   1.385       .  S
C171        F176   1.383       .  S
C171        F177   1.383       .  S
C174        F178   1.384       .  S
C174        F180   1.384       .  S
C174        F899   1.383       .  S
F179        C894   1.383       .  S
O181       Cd186   2.485   1_545  S
O181        C544   1.268       .  A
C182        O191   1.265       .  A
C182        O187   1.268       .  A
C182        C349   1.491       .  S
O183       Cd546   2.527       .  S
O183        C189   1.264       .  A
C184        O541   1.268       .  A
C184        O192   1.262       .  A
C184        C298   1.483       .  S
C185        O550   1.268       .  A
C185        O188   1.262   1_565  A
C185        C314   1.481       .  S
Cd186       O543   2.527       .  S
Cd186       O553   2.451       .  S
Cd186       O552   2.455       .  S
Cd186       O191   2.462   1_565  S
Cd186       O187   2.506   1_565  S
Cd186       O550   2.498       .  S
Cd186       O188   2.433   1_565  S
C189        O193   1.262       .  A
C189        C330   1.486       .  S
O190       Cd546   2.498       .  S
O190        C545   1.268       .  A
O192       Cd546   2.455       .  S
O193       Cd546   2.451       .  S
O194       Cd199   2.489       .  S
O194        C197   1.266       .  A
C195        O204   1.263   1_565  A
C195        O560   1.267       .  A
C195        C317   1.476       .  S
O196       Cd559   2.490   1_545  S
O196        C562   1.268       .  A
C197        O205   1.265       .  A
C197        C266   1.492       .  S
C198        O203   1.268       .  A
C198        O201   1.262       .  A
C198        C282   1.489       .  S
Cd199       O556   2.490       .  S
Cd199       O206   2.446       .  S
Cd199       O205   2.442       .  S
Cd199       O564   2.449       .  S
Cd199       O200   2.480       .  S
Cd199       O563   2.488       .  S
Cd199       O561   2.455       .  S
O200        C555   1.267       .  A
O201       Cd559   2.455   1_545  S
C202        O556   1.268       .  A
C202        O206   1.264       .  A
C202        C301   1.480       .  S
O203       Cd559   2.488   1_545  S
O204       Cd559   2.449   1_545  S
O207        C210   1.267       .  A
C208        O217   1.264       .  A
C208        O213   1.268       .  A
C208        C269   1.480       .  S
O209       Cd752   2.497   1_455  S
O209        C215   1.269       .  A
C210        O938   1.262       .  A
C210        C234   1.478       .  S
C211        O936   1.268       .  A
C211        O214   1.263       .  A
C211        C253   1.479       .  S
Cd212       O749   2.497       .  S
Cd212       O759   2.445       .  S
Cd212       O758   2.417       .  S
Cd212       O217   2.429   1_554  S
Cd212       O213   2.485   1_554  S
Cd212       O936   2.486   1_554  S
Cd212       O214   2.432   1_554  S
C215        O219   1.263       .  A
C215        C333   1.499       .  S
O216       Cd932   2.486   1_456  S
O216        C931   1.268       .  A
O218       Cd752   2.417   1_455  S
O218        C930   1.262   1_455  A
O219       Cd752   2.445   1_455  S
O220       Cd225   2.480       .  S
O220        C223   1.266       .  A
C221        O230   1.265       .  A
C221        O226   1.265       .  A
C221        C285   1.491       .  S
O222       Cd945   2.474   1_455  S
O222        C228   1.267       .  A
C223        O951   1.266       .  A
C223        C237   1.491       .  S
C224        O949   1.265       .  A
C224        O227   1.265       .  A
C224        C250   1.495       .  S
Cd225       O942   2.474       .  S
Cd225       O952   2.461       .  S
Cd225       O951   2.432       .  S
Cd225       O230   2.463       .  S
Cd225       O226   2.485       .  S
Cd225       O949   2.488       .  S
Cd225       O227   2.436       .  S
C228        O232   1.266       .  A
C228        C346   1.487       .  S
O229       Cd945   2.488   1_455  S
O229        C944   1.265       .  A
O231       Cd945   2.432   1_455  S
O231        C943   1.266   1_455  A
O232       Cd945   2.461   1_455  S
C233        C234   1.402       .  A
C233        C238   1.411       .  A
C233        H240   1.083       .  S
C234        C955   1.417       .  A
C235        C954   1.417   1_455  A
C235        C236   1.402       .  A
C235        C242   1.523       .  S
C236        C957   1.406   1_455  A
C236        H241   1.082       .  S
C237        C956   1.406       .  A
C237        C238   1.424       .  A
C238        C239   1.519       .  S
C239        F243   1.385       .  S
C239        F244   1.384       .  S
C239        F245   1.383       .  S
C242        F246   1.384       .  S
C242        F247   1.382       .  S
C242        F248   1.385       .  S
C249        C250   1.408       .  A
C249        C254   1.403       .  A
C249        H256   1.082       .  S
C250        C971   1.425       .  A
C251        C970   1.425       .  A
C251        C252   1.412       .  A
C251        C258   1.520       .  S
C252        C973   1.402       .  A
C252        H257   1.082       .  S
C253        C972   1.402       .  A
C253        C254   1.415       .  A
C254        C255   1.522       .  S
C255        F259   1.385       .  S
C255        F260   1.384       .  S
C255        F261   1.383       .  S
C258        F262   1.383       .  S
C258        F263   1.383       .  S
C258        F264   1.385       .  S
C265        C266   1.407       .  A
C265        C270   1.404       .  A
C265        H272   1.082       .  S
C266        C267   1.423       .  A
C267        C268   1.412       .  A
C267        C274   1.519       .  S
C268        C269   1.403       .  A
C268        H273   1.083       .  S
C269        C270   1.415       .  A
C270        C271   1.521       .  S
C271        F275   1.384       .  S
C271        F276   1.382       .  S
C271        F277   1.384   1_556  S
C274        F278   1.383       .  S
C274        F279   1.384       .  S
C274        F280   1.385       .  S
C281        C282   1.404       .  A
C281        C286   1.409       .  A
C281        H288   1.081       .  S
C282        C283   1.421       .  A
C283        C284   1.408       .  A
C283        C290   1.521       .  S
C284        C285   1.406       .  A
C284        H289   1.081       .  S
C285        C286   1.421       .  A
C286        C287   1.519       .  S
C287        F291   1.385       .  S
C287        F292   1.383       .  S
C287        F293   1.383       .  S
C290        F294   1.383       .  S
C290        F295   1.384       .  S
C290        F296   1.385       .  S
C297        C478   1.402   1_556  A
C297        C302   1.405       .  A
C297        H304   1.084       .  S
C298        C477   1.402       .  A
C298        C299   1.421       .  A
C299        C300   1.408       .  A
C299        C306   1.517       .  S
C300        H305   1.084       .  S
C301        C662   1.417       .  A
C302        C661   1.417       .  A
C302        C303   1.515       .  S
C303        F667   1.385       .  S
C303        F668   1.381   1_545  S
C303        F309   1.383       .  S
C306        F310   1.381       .  S
C306        F671   1.383       .  S
C306        F312   1.385       .  S
F307        C663   1.385       .  S
F308        C663   1.381       .  S
F311        C666   1.383       .  S
C313        C674   1.403       .  A
C313        C318   1.408       .  A
C313        H320   1.083       .  S
C314        C673   1.403       .  A
C314        C315   1.420       .  A
C315        C316   1.405       .  A
C315        C322   1.517       .  S
C316        C317   1.399       .  A
C316        H321   1.084       .  S
C317        C678   1.416       .  A
C318        C677   1.416       .  A
C318        C319   1.515       .  S
C319        F683   1.384       .  S
C319        F684   1.381       .  S
C319        F325   1.384       .  S
C322        F326   1.382   1_565  S
C322        F687   1.383       .  S
C322        F328   1.385       .  S
F323        C679   1.384       .  S
F324        C679   1.381   1_545  S
F327        C682   1.383       .  S
C329        C330   1.400       .  A
C329        C334   1.406       .  A
C329        H336   1.083       .  S
C330        C331   1.417       .  A
C331        C332   1.412       .  A
C331        C338   1.519       .  S
C332        C333   1.410       .  A
C332        H337   1.083       .  S
C333        C334   1.427       .  A
C334        C335   1.522       .  S
C335        F339   1.385       .  S
C335        F340   1.383       .  S
C335       F1061   1.383       .  S
C338        F342   1.382       .  S
C338        F343   1.383       .  S
F341       C1055   1.383       .  S
C345        C346   1.405       .  A
C345        C350   1.410       .  A
C345        H352   1.083       .  S
C346        C347   1.418       .  A
C347        C348   1.410       .  A
C347        C354   1.520       .  S
C348        C349   1.407       .  A
C348        H353   1.083       .  S
C349        C350   1.420       .  A
C350        C351   1.519       .  S
C351        F355   1.385       .  S
C351        F356   1.383       .  S
C351        F357   1.383       .  S
C354        F358   1.384       .  S
C354       F1079   1.383       .  S
C354        F360   1.384       .  S
F359       C1074   1.383       .  S
O361       Cd366   2.485       .  S
C362        O371   1.265       .  A
C362        O367   1.268       .  A
C362        C529   1.491       .  S
O363        C369   1.264       .  A
C364        O372   1.262   1_545  A
C364        C478   1.483       .  S
C365        O368   1.262       .  A
C365        C494   1.481       .  S
Cd366       O371   2.462       .  S
Cd366       O367   2.506       .  S
Cd366       O368   2.433       .  S
C369        O373   1.262       .  A
C369        C510   1.486       .  S
O374       Cd379   2.489       .  S
O374        C377   1.266       .  A
C375        O384   1.263       .  A
C375        C497   1.476       .  S
C377        O385   1.265       .  A
C377        C446   1.492       .  S
C378        O383   1.268       .  A
C378        O381   1.262       .  A
C378        C462   1.489       .  S
Cd379       O386   2.446       .  S
Cd379       O385   2.442       .  S
Cd379       O380   2.480       .  S
C382        O386   1.264   1_545  A
C382        C481   1.480       .  S
O387       Cd572   2.495       .  S
O387        C390   1.267       .  A
C388        O397   1.264       .  A
C388        O393   1.268       .  A
C388        C449   1.480       .  S
O389      Cd1292   2.497   1_455  S
O389        C395   1.269       .  A
C390       O1118   1.262       .  A
C390        C414   1.478       .  S
C391       O1116   1.268       .  A
C391        O394   1.263       .  A
C391        C433   1.479       .  S
Cd392       O567   2.495       .  S
Cd392      O1289   2.497       .  S
Cd392      O1299   2.445       .  S
Cd392      O1298   2.417       .  S
Cd392       O397   2.429       .  S
Cd392       O393   2.485       .  S
Cd392      O1116   2.486       .  S
Cd392       O394   2.432       .  S
C395        O399   1.263       .  A
C395        C513   1.499       .  S
O396      Cd1112   2.486   1_455  S
O396       C1111   1.268       .  A
O398      Cd1292   2.417   1_455  S
O398       C1110   1.262   1_455  A
O399      Cd1292   2.445   1_455  S
O400       Cd405   2.480       .  S
O400        C403   1.266       .  A
C401        O410   1.265       .  A
C401        O406   1.265       .  A
C401        C465   1.491       .  S
O402      Cd1125   2.474   1_455  S
O402        C408   1.267       .  A
C403       O1131   1.266       .  A
C403        C417   1.491       .  S
C404       O1129   1.265       .  A
C404        O407   1.265       .  A
C404        C430   1.495       .  S
Cd405      O1122   2.474       .  S
Cd405      O1132   2.461       .  S
Cd405      O1131   2.432       .  S
Cd405       O410   2.463       .  S
Cd405       O406   2.485       .  S
Cd405      O1129   2.488       .  S
Cd405       O407   2.436       .  S
C408        O412   1.266       .  A
C408        C526   1.487       .  S
O409      Cd1125   2.488   1_455  S
O409       C1124   1.265       .  A
O411      Cd1125   2.432   1_455  S
O411       C1123   1.266   1_455  A
O412      Cd1125   2.461   1_455  S
C413        C414   1.402       .  A
C413        C418   1.411       .  A
C413        H420   1.083       .  S
C414       C1135   1.417       .  A
C415       C1134   1.417   1_455  A
C415        C416   1.402       .  A
C415        C422   1.523       .  S
C416       C1137   1.406   1_455  A
C416        H421   1.082       .  S
C417       C1136   1.406       .  A
C417        C418   1.424       .  A
C418        C419   1.519       .  S
C419        F423   1.385       .  S
C419        F424   1.384       .  S
C419        F425   1.383       .  S
C422        F426   1.384       .  S
C422        F427   1.382       .  S
C422        F428   1.385       .  S
C429        C430   1.408       .  A
C429        C434   1.403       .  A
C429        H436   1.082       .  S
C430       C1151   1.425       .  A
C431       C1150   1.425       .  A
C431        C432   1.412       .  A
C431        C438   1.520       .  S
C432       C1153   1.402       .  A
C432        H437   1.082       .  S
C433       C1152   1.402       .  A
C433        C434   1.415       .  A
C434        C435   1.522       .  S
C435        F439   1.385       .  S
C435        F440   1.384       .  S
C435        F441   1.383       .  S
C438        F442   1.383       .  S
C438        F443   1.383       .  S
C438        F444   1.385       .  S
C445        C446   1.407       .  A
C445        C450   1.404       .  A
C445        H452   1.082       .  S
C446        C447   1.423       .  A
C447        C448   1.412       .  A
C447        C454   1.519       .  S
C448        C449   1.403       .  A
C448        H453   1.083       .  S
C449        C450   1.415       .  A
C450        C451   1.521       .  S
C451        F455   1.384       .  S
C451        F456   1.382       .  S
C451        F457   1.384       .  S
C454        F458   1.383       .  S
C454        F459   1.384       .  S
C454        F460   1.385       .  S
C461        C462   1.404       .  A
C461        C466   1.409       .  A
C461        H468   1.081       .  S
C462        C463   1.421       .  A
C463        C464   1.408       .  A
C463        C470   1.521       .  S
C464        C465   1.406       .  A
C464        H469   1.081       .  S
C465        C466   1.421       .  A
C466        C467   1.519       .  S
C467        F471   1.385       .  S
C467        F472   1.383       .  S
C467        F473   1.383       .  S
C470        F474   1.383       .  S
C470        F475   1.384       .  S
C470        F476   1.385       .  S
C477        C482   1.405       .  A
C477        H484   1.084       .  S
C478        C479   1.421       .  A
C479        C480   1.408       .  A
C479        C486   1.517       .  S
C480        C661   1.401   1_554  A
C480        H485   1.084       .  S
C481        C660   1.401       .  A
C482        C483   1.515       .  S
C483        F489   1.383       .  S
C486        F490   1.381   1_545  S
C486        F492   1.385       .  S
C493        C498   1.408       .  A
C493        H500   1.083       .  S
C494        C495   1.420       .  A
C495        C496   1.405       .  A
C495        C502   1.517       .  S
C496        C497   1.399       .  A
C496        H501   1.084       .  S
C498        C499   1.515       .  S
C499        F505   1.384       .  S
C502        F506   1.382       .  S
C502        F508   1.385       .  S
C509        C510   1.400       .  A
C509        C514   1.406       .  A
C509        H516   1.083       .  S
C510        C511   1.417       .  A
C511        C512   1.412       .  A
C511        C518   1.519       .  S
C512        C513   1.410       .  A
C512        H517   1.083       .  S
C513        C514   1.427       .  A
C514        C515   1.522       .  S
C515        F519   1.385       .  S
C515        F520   1.383       .  S
C515       F1241   1.383       .  S
C518        F522   1.382       .  S
C518        F523   1.383       .  S
C518        F704   1.385   1_554  S
F521       C1235   1.383       .  S
F524        C698   1.385       .  S
C525        C526   1.405       .  A
C525        C530   1.410       .  A
C525        H532   1.083       .  S
C526        C527   1.418       .  A
C527        C528   1.410       .  A
C527        C534   1.520       .  S
C528        C529   1.407       .  A
C528        H533   1.083       .  S
C529        C530   1.420       .  A
C530        C531   1.519       .  S
C531        F535   1.385       .  S
C531        F536   1.383       .  S
C531        F537   1.383       .  S
C534        F538   1.384       .  S
C534       F1259   1.383       .  S
C534        F540   1.384       .  S
F539       C1254   1.383       .  S
O541       Cd546   2.485       .  S
C542        O551   1.265       .  A
C542        O547   1.268       .  A
C542        C709   1.491       .  S
O543        C549   1.264       .  A
C544        O552   1.262   1_545  A
C544        C658   1.483       .  S
C545        O548   1.262       .  A
C545        C674   1.481       .  S
Cd546       O551   2.462       .  S
Cd546       O547   2.506       .  S
Cd546       O548   2.433       .  S
C549        O553   1.262       .  A
C549        C690   1.486       .  S
O554       Cd559   2.489       .  S
O554        C557   1.266       .  A
C555        O564   1.263       .  A
C555        C677   1.476       .  S
C557        O565   1.265       .  A
C557        C626   1.492       .  S
C558        O563   1.268       .  A
C558        O561   1.262       .  A
C558        C642   1.489       .  S
Cd559       O566   2.446       .  S
Cd559       O565   2.442       .  S
Cd559       O560   2.480       .  S
C562        O566   1.264   1_545  A
C562        C661   1.480       .  S
O567        C570   1.267       .  A
C568        O577   1.264       .  A
C568        O573   1.268       .  A
C568        C629   1.480       .  S
O569      Cd1112   2.497   1_455  S
O569        C575   1.269       .  A
C570       O1298   1.262       .  A
C570        C594   1.478       .  S
C571       O1296   1.268       .  A
C571        O574   1.263       .  A
C571        C613   1.479       .  S
Cd572      O1109   2.497       .  S
Cd572      O1119   2.445       .  S
Cd572      O1118   2.417       .  S
Cd572       O577   2.429   1_554  S
Cd572       O573   2.485   1_554  S
Cd572      O1296   2.486   1_554  S
Cd572       O574   2.432   1_554  S
C575        O579   1.263       .  A
C575        C693   1.499       .  S
O576      Cd1292   2.486   1_456  S
O576       C1291   1.268       .  A
O578      Cd1112   2.417   1_455  S
O578       C1290   1.262   1_455  A
O579      Cd1112   2.445   1_455  S
O580       Cd585   2.480       .  S
O580        C583   1.266       .  A
C581        O590   1.265       .  A
C581        O586   1.265       .  A
C581        C645   1.491       .  S
O582      Cd1305   2.474   1_455  S
O582        C588   1.267       .  A
C583       O1311   1.266       .  A
C583        C597   1.491       .  S
C584       O1309   1.265       .  A
C584        O587   1.265       .  A
C584        C610   1.495       .  S
Cd585      O1302   2.474       .  S
Cd585      O1312   2.461       .  S
Cd585      O1311   2.432       .  S
Cd585       O590   2.463       .  S
Cd585       O586   2.485       .  S
Cd585      O1309   2.488       .  S
Cd585       O587   2.436       .  S
C588        O592   1.266       .  A
C588        C706   1.487       .  S
O589      Cd1305   2.488   1_455  S
O589       C1304   1.265       .  A
O591      Cd1305   2.432   1_455  S
O591       C1303   1.266   1_455  A
O592      Cd1305   2.461   1_455  S
C593        C594   1.402       .  A
C593        C598   1.411       .  A
C593        H600   1.083       .  S
C594       C1315   1.417       .  A
C595       C1314   1.417   1_455  A
C595        C596   1.402       .  A
C595        C602   1.523       .  S
C596       C1317   1.406   1_455  A
C596        H601   1.082       .  S
C597       C1316   1.406       .  A
C597        C598   1.424       .  A
C598        C599   1.519       .  S
C599        F603   1.385       .  S
C599        F604   1.384       .  S
C599        F605   1.383       .  S
C602        F606   1.384       .  S
C602        F607   1.382       .  S
C602        F608   1.385       .  S
C609        C610   1.408       .  A
C609        C614   1.403       .  A
C609        H616   1.082       .  S
C610       C1331   1.425       .  A
C611       C1330   1.425       .  A
C611        C612   1.412       .  A
C611        C618   1.520       .  S
C612       C1333   1.402       .  A
C612        H617   1.082       .  S
C613       C1332   1.402       .  A
C613        C614   1.415       .  A
C614        C615   1.522       .  S
C615        F619   1.385       .  S
C615        F620   1.384       .  S
C615        F621   1.383       .  S
C618        F622   1.383       .  S
C618        F623   1.383       .  S
C618        F624   1.385       .  S
C625        C626   1.407       .  A
C625        C630   1.404       .  A
C625        H632   1.082       .  S
C626        C627   1.423       .  A
C627        C628   1.412       .  A
C627        C634   1.519       .  S
C628        C629   1.403       .  A
C628        H633   1.083       .  S
C629        C630   1.415       .  A
C630        C631   1.521       .  S
C631        F635   1.384       .  S
C631        F636   1.382       .  S
C631        F637   1.384   1_556  S
C634        F638   1.383       .  S
C634        F639   1.384       .  S
C634        F640   1.385       .  S
C641        C642   1.404       .  A
C641        C646   1.409       .  A
C641        H648   1.081       .  S
C642        C643   1.421       .  A
C643        C644   1.408       .  A
C643        C650   1.521       .  S
C644        C645   1.406       .  A
C644        H649   1.081       .  S
C645        C646   1.421       .  A
C646        C647   1.519       .  S
C647        F651   1.385       .  S
C647        F652   1.383       .  S
C647        F653   1.383       .  S
C650        F654   1.383       .  S
C650        F655   1.384       .  S
C650        F656   1.385       .  S
C657        C662   1.405       .  A
C657        H664   1.084       .  S
C658        C659   1.421       .  A
C659        C660   1.408       .  A
C659        C666   1.517       .  S
C660        H665   1.084       .  S
C662        C663   1.515       .  S
C663        F669   1.383       .  S
C666        F670   1.381   1_545  S
C666        F672   1.385       .  S
C673        C678   1.408       .  A
C673        H680   1.083       .  S
C674        C675   1.420       .  A
C675        C676   1.405       .  A
C675        C682   1.517       .  S
C676        C677   1.399       .  A
C676        H681   1.084       .  S
C678        C679   1.515       .  S
C679        F685   1.384       .  S
C682        F686   1.382       .  S
C682        F688   1.385       .  S
C689        C690   1.400       .  A
C689        C694   1.406       .  A
C689        H696   1.083       .  S
C690        C691   1.417       .  A
C691        C692   1.412       .  A
C691        C698   1.519       .  S
C692        C693   1.410       .  A
C692        H697   1.083       .  S
C693        C694   1.427       .  A
C694        C695   1.522       .  S
C695        F699   1.385       .  S
C695        F700   1.383       .  S
C695       F1421   1.383       .  S
C698        F702   1.382       .  S
C698        F703   1.383       .  S
F701       C1415   1.383       .  S
C705        C706   1.405       .  A
C705        C710   1.410       .  A
C705        H712   1.083       .  S
C706        C707   1.418       .  A
C707        C708   1.410       .  A
C707        C714   1.520       .  S
C708        C709   1.407       .  A
C708        H713   1.083       .  S
C709        C710   1.420       .  A
C710        C711   1.519       .  S
C711        F715   1.385       .  S
C711        F716   1.383       .  S
C711        F717   1.383       .  S
C714        F718   1.384       .  S
C714       F1439   1.383       .  S
C714        F720   1.384       .  S
F719       C1434   1.383       .  S
O721       Cd726   2.485   1_545  S
O721       C1084   1.268       .  A
C722        O731   1.265       .  A
C722        O727   1.268       .  A
C722        C889   1.491       .  S
O723      Cd1086   2.527       .  S
O723        C729   1.264       .  A
C724       O1081   1.268       .  A
C724        O732   1.262       .  A
C724        C838   1.483       .  S
C725       O1090   1.268       .  A
C725        O728   1.262   1_565  A
C725        C854   1.481       .  S
Cd726      O1083   2.527       .  S
Cd726      O1093   2.451       .  S
Cd726      O1092   2.455       .  S
Cd726       O731   2.462   1_565  S
Cd726       O727   2.506   1_565  S
Cd726      O1090   2.498       .  S
Cd726       O728   2.433   1_565  S
C729        O733   1.262       .  A
C729        C870   1.486       .  S
O730      Cd1086   2.498       .  S
O730       C1085   1.268       .  A
O732      Cd1086   2.455       .  S
O733      Cd1086   2.451       .  S
O734       Cd739   2.489       .  S
O734        C737   1.266       .  A
C735        O744   1.263   1_565  A
C735       O1100   1.267       .  A
C735        C857   1.476       .  S
O736      Cd1099   2.490   1_545  S
O736       C1102   1.268       .  A
C737        O745   1.265       .  A
C737        C806   1.492       .  S
C738        O743   1.268       .  A
C738        O741   1.262       .  A
C738        C822   1.489       .  S
Cd739      O1096   2.490       .  S
Cd739       O746   2.446       .  S
Cd739       O745   2.442       .  S
Cd739      O1104   2.449       .  S
Cd739       O740   2.480       .  S
Cd739      O1103   2.488       .  S
Cd739      O1101   2.455       .  S
O740       C1095   1.267       .  A
O741      Cd1099   2.455   1_545  S
C742       O1096   1.268       .  A
C742        O746   1.264       .  A
C742        C841   1.480       .  S
O743      Cd1099   2.488   1_545  S
O744      Cd1099   2.449   1_545  S
O747       Cd932   2.495       .  S
O747        C750   1.267       .  A
C748        O757   1.264       .  A
C748        O753   1.268       .  A
C748        C809   1.480       .  S
O749        C755   1.269       .  A
C750        C774   1.478       .  S
C751        O754   1.263   1_455  A
C751        C793   1.479       .  S
Cd752       O927   2.495       .  S
Cd752       O757   2.429       .  S
Cd752       O753   2.485       .  S
Cd752       O754   2.432       .  S
C755        O759   1.263       .  A
C755        C873   1.499       .  S
O760       Cd765   2.480       .  S
O760        C763   1.266       .  A
C761        O770   1.265       .  A
C761        O766   1.265       .  A
C761        C825   1.491       .  S
O762        C768   1.267       .  A
C763        C777   1.491       .  S
C764        O767   1.265   1_455  A
C764        C790   1.495       .  S
Cd765       O770   2.463       .  S
Cd765       O766   2.485       .  S
Cd765       O767   2.436       .  S
C768        O772   1.266       .  A
C768        C886   1.487       .  S
C773        C774   1.402       .  A
C773        C778   1.411       .  A
C773        H780   1.083       .  S
C775        C776   1.402       .  A
C775        C782   1.523       .  S
C776        H781   1.082       .  S
C777        C778   1.424       .  A
C778        C779   1.519       .  S
C779        F783   1.385       .  S
C779        F784   1.384       .  S
C779        F785   1.383       .  S
C782        F786   1.384       .  S
C782        F787   1.382       .  S
C782        F788   1.385       .  S
C789        C790   1.408   1_655  A
C789        C794   1.403       .  A
C789        H796   1.082       .  S
C791        C792   1.412       .  A
C791        C798   1.520       .  S
C792        H797   1.082       .  S
C793        C794   1.415   1_455  A
C794        C795   1.522       .  S
C795        F799   1.385       .  S
C795        F800   1.384       .  S
C795        F801   1.383       .  S
C798        F802   1.383       .  S
C798        F803   1.383       .  S
C798        F804   1.385       .  S
C805        C806   1.407       .  A
C805        C810   1.404       .  A
C805        H812   1.082       .  S
C806        C807   1.423       .  A
C807        C808   1.412       .  A
C807        C814   1.519       .  S
C808        C809   1.403       .  A
C808        H813   1.083       .  S
C809        C810   1.415       .  A
C810        C811   1.521       .  S
C811        F815   1.384       .  S
C811        F816   1.382       .  S
C811        F817   1.384       .  S
C814        F818   1.383       .  S
C814        F819   1.384       .  S
C814        F820   1.385       .  S
C821        C822   1.404       .  A
C821        C826   1.409       .  A
C821        H828   1.081       .  S
C822        C823   1.421       .  A
C823        C824   1.408       .  A
C823        C830   1.521       .  S
C824        C825   1.406       .  A
C824        H829   1.081       .  S
C825        C826   1.421       .  A
C826        C827   1.519       .  S
C827        F831   1.385       .  S
C827        F832   1.383       .  S
C827        F833   1.383       .  S
C830        F834   1.383       .  S
C830        F835   1.384       .  S
C830        F836   1.385       .  S
C837       C1378   1.402       .  A
C837        C842   1.405       .  A
C837        H844   1.084       .  S
C838       C1377   1.402   1_554  A
C838        C839   1.421       .  A
C839        C840   1.408       .  A
C839        C846   1.517       .  S
C840       C1021   1.401   1_554  A
C840        H845   1.084       .  S
C841       C1020   1.401       .  A
C841       C1202   1.417       .  A
C842       C1201   1.417       .  A
C842        C843   1.515       .  S
C843       F1207   1.385       .  S
C843       F1208   1.381   1_545  S
C843        F849   1.383       .  S
C846        F850   1.381       .  S
C846       F1211   1.383       .  S
C846        F852   1.385       .  S
F847       C1203   1.385       .  S
F848       C1203   1.381       .  S
F851       C1206   1.383       .  S
C853       C1214   1.403       .  A
C853        C858   1.408       .  A
C853        H860   1.083       .  S
C854       C1213   1.403       .  A
C854        C855   1.420       .  A
C855        C856   1.405       .  A
C855        C862   1.517       .  S
C856        C857   1.399       .  A
C856        H861   1.084       .  S
C857       C1218   1.416       .  A
C858       C1217   1.416       .  A
C858        C859   1.515       .  S
C859       F1223   1.384       .  S
C859       F1224   1.381       .  S
C859        F865   1.384       .  S
C862        F866   1.382   1_565  S
C862       F1227   1.383       .  S
C862        F868   1.385       .  S
F863       C1219   1.384       .  S
F864       C1219   1.381   1_545  S
F867       C1222   1.383       .  S
C869        C870   1.400       .  A
C869        C874   1.406       .  A
C869        H876   1.083       .  S
C870        C871   1.417       .  A
C871        C872   1.412       .  A
C871        C878   1.519       .  S
C872        C873   1.410       .  A
C872        H877   1.083       .  S
C873        C874   1.427       .  A
C874        C875   1.522       .  S
C875        F879   1.385       .  S
C875        F880   1.383       .  S
C878        F882   1.382       .  S
C878        F883   1.383       .  S
C878       F1064   1.385   1_554  S
F884       C1058   1.385       .  S
C885        C886   1.405       .  A
C885        C890   1.410       .  A
C885        H892   1.083       .  S
C886        C887   1.418       .  A
C887        C888   1.410       .  A
C887        C894   1.520       .  S
C888        C889   1.407       .  A
C888        H893   1.083       .  S
C889        C890   1.420       .  A
C890        C891   1.519       .  S
C891        F895   1.385       .  S
C891        F896   1.383       .  S
C891        F897   1.383       .  S
C894        F898   1.384       .  S
C894        F900   1.384       .  S
O901       Cd906   2.485   1_545  S
O901       C1264   1.268       .  A
C902        O911   1.265       .  A
C902        O907   1.268       .  A
C902       C1069   1.491       .  S
O903      Cd1266   2.527       .  S
O903        C909   1.264       .  A
C904       O1261   1.268       .  A
C904        O912   1.262       .  A
C904       C1018   1.483       .  S
C905       O1270   1.268       .  A
C905        O908   1.262   1_565  A
C905       C1034   1.481       .  S
Cd906      O1263   2.527       .  S
Cd906      O1273   2.451       .  S
Cd906      O1272   2.455       .  S
Cd906       O911   2.462   1_565  S
Cd906       O907   2.506   1_565  S
Cd906      O1270   2.498       .  S
Cd906       O908   2.433   1_565  S
C909        O913   1.262       .  A
C909       C1050   1.486       .  S
O910      Cd1266   2.498       .  S
O910       C1265   1.268       .  A
O912      Cd1266   2.455       .  S
O913      Cd1266   2.451       .  S
O914       Cd919   2.489       .  S
O914        C917   1.266       .  A
C915        O924   1.263   1_565  A
C915       O1280   1.267       .  A
C915       C1037   1.476       .  S
O916      Cd1279   2.490   1_545  S
O916       C1282   1.268       .  A
C917        O925   1.265       .  A
C917        C986   1.492       .  S
C918        O923   1.268       .  A
C918        O921   1.262       .  A
C918       C1002   1.489       .  S
Cd919      O1276   2.490       .  S
Cd919       O926   2.446       .  S
Cd919       O925   2.442       .  S
Cd919      O1284   2.449       .  S
Cd919       O920   2.480       .  S
Cd919      O1283   2.488       .  S
Cd919      O1281   2.455       .  S
O920       C1275   1.267       .  A
O921      Cd1279   2.455   1_545  S
C922       O1276   1.268       .  A
C922        O926   1.264       .  A
C922       C1021   1.480       .  S
O923      Cd1279   2.488   1_545  S
O924      Cd1279   2.449   1_545  S
O927        C930   1.267       .  A
C928        O937   1.264       .  A
C928        O933   1.268       .  A
C928        C989   1.480       .  S
O929        C935   1.269       .  A
C930        C954   1.478       .  S
C931        O934   1.263   1_455  A
C931        C973   1.479       .  S
Cd932       O937   2.429   1_554  S
Cd932       O933   2.485   1_554  S
Cd932       O934   2.432   1_554  S
C935        O939   1.263       .  A
C935       C1053   1.499       .  S
O940       Cd945   2.480       .  S
O940        C943   1.266       .  A
C941        O950   1.265       .  A
C941        O946   1.265       .  A
C941       C1005   1.491       .  S
O942        C948   1.267       .  A
C943        C957   1.491       .  S
C944        O947   1.265   1_455  A
C944        C970   1.495       .  S
Cd945       O950   2.463       .  S
Cd945       O946   2.485       .  S
Cd945       O947   2.436       .  S
C948        O952   1.266       .  A
C948       C1066   1.487       .  S
C953        C954   1.402       .  A
C953        C958   1.411       .  A
C953        H960   1.083       .  S
C955        C956   1.402       .  A
C955        C962   1.523       .  S
C956        H961   1.082       .  S
C957        C958   1.424       .  A
C958        C959   1.519       .  S
C959        F963   1.385       .  S
C959        F964   1.384       .  S
C959        F965   1.383       .  S
C962        F966   1.384       .  S
C962        F967   1.382       .  S
C962        F968   1.385       .  S
C969        C970   1.408   1_655  A
C969        C974   1.403       .  A
C969        H976   1.082       .  S
C971        C972   1.412       .  A
C971        C978   1.520       .  S
C972        H977   1.082       .  S
C973        C974   1.415   1_455  A
C974        C975   1.522       .  S
C975        F979   1.385       .  S
C975        F980   1.384       .  S
C975        F981   1.383       .  S
C978        F982   1.383       .  S
C978        F983   1.383       .  S
C978        F984   1.385       .  S
C985        C986   1.407       .  A
C985        C990   1.404       .  A
C985        H992   1.082       .  S
C986        C987   1.423       .  A
C987        C988   1.412       .  A
C987        C994   1.519       .  S
C988        C989   1.403       .  A
C988        H993   1.083       .  S
C989        C990   1.415       .  A
C990        C991   1.521       .  S
C991        F995   1.384       .  S
C991        F996   1.382       .  S
C991        F997   1.384   1_556  S
C994        F998   1.383       .  S
C994        F999   1.384       .  S
C994       F1000   1.385       .  S
C1001      C1002   1.404       .  A
C1001      C1006   1.409       .  A
C1001      H1008   1.081       .  S
C1002      C1003   1.421       .  A
C1003      C1004   1.408       .  A
C1003      C1010   1.521       .  S
C1004      C1005   1.406       .  A
C1004      H1009   1.081       .  S
C1005      C1006   1.421       .  A
C1006      C1007   1.519       .  S
C1007      F1011   1.385       .  S
C1007      F1012   1.383       .  S
C1007      F1013   1.383       .  S
C1010      F1014   1.383       .  S
C1010      F1015   1.384       .  S
C1010      F1016   1.385       .  S
C1017      C1198   1.402   1_556  A
C1017      C1022   1.405       .  A
C1017      H1024   1.084       .  S
C1018      C1197   1.402       .  A
C1018      C1019   1.421       .  A
C1019      C1020   1.408       .  A
C1019      C1026   1.517       .  S
C1020      H1025   1.084       .  S
C1021      C1382   1.417       .  A
C1022      C1381   1.417       .  A
C1022      C1023   1.515       .  S
C1023      F1387   1.385       .  S
C1023      F1388   1.381   1_545  S
C1023      F1029   1.383       .  S
C1026      F1030   1.381       .  S
C1026      F1391   1.383       .  S
C1026      F1032   1.385       .  S
F1027      C1383   1.385       .  S
F1028      C1383   1.381       .  S
F1031      C1386   1.383       .  S
C1033      C1394   1.403       .  A
C1033      C1038   1.408       .  A
C1033      H1040   1.083       .  S
C1034      C1393   1.403       .  A
C1034      C1035   1.420       .  A
C1035      C1036   1.405       .  A
C1035      C1042   1.517       .  S
C1036      C1037   1.399       .  A
C1036      H1041   1.084       .  S
C1037      C1398   1.416       .  A
C1038      C1397   1.416       .  A
C1038      C1039   1.515       .  S
C1039      F1403   1.384       .  S
C1039      F1404   1.381       .  S
C1039      F1045   1.384       .  S
C1042      F1046   1.382   1_565  S
C1042      F1407   1.383       .  S
C1042      F1048   1.385       .  S
F1043      C1399   1.384       .  S
F1044      C1399   1.381   1_545  S
F1047      C1402   1.383       .  S
C1049      C1050   1.400       .  A
C1049      C1054   1.406       .  A
C1049      H1056   1.083       .  S
C1050      C1051   1.417       .  A
C1051      C1052   1.412       .  A
C1051      C1058   1.519       .  S
C1052      C1053   1.410       .  A
C1052      H1057   1.083       .  S
C1053      C1054   1.427       .  A
C1054      C1055   1.522       .  S
C1055      F1059   1.385       .  S
C1055      F1060   1.383       .  S
C1058      F1062   1.382       .  S
C1058      F1063   1.383       .  S
C1065      C1066   1.405       .  A
C1065      C1070   1.410       .  A
C1065      H1072   1.083       .  S
C1066      C1067   1.418       .  A
C1067      C1068   1.410       .  A
C1067      C1074   1.520       .  S
C1068      C1069   1.407       .  A
C1068      H1073   1.083       .  S
C1069      C1070   1.420       .  A
C1070      C1071   1.519       .  S
C1071      F1075   1.385       .  S
C1071      F1076   1.383       .  S
C1071      F1077   1.383       .  S
C1074      F1078   1.384       .  S
C1074      F1080   1.384       .  S
O1081     Cd1086   2.485       .  S
C1082      O1091   1.265       .  A
C1082      O1087   1.268       .  A
C1082      C1249   1.491       .  S
O1083      C1089   1.264       .  A
C1084      O1092   1.262   1_545  A
C1084      C1198   1.483       .  S
C1085      O1088   1.262       .  A
C1085      C1214   1.481       .  S
Cd1086     O1091   2.462       .  S
Cd1086     O1087   2.506       .  S
Cd1086     O1088   2.433       .  S
C1089      O1093   1.262       .  A
C1089      C1230   1.486       .  S
O1094     Cd1099   2.489       .  S
O1094      C1097   1.266       .  A
C1095      O1104   1.263       .  A
C1095      C1217   1.476       .  S
C1097      O1105   1.265       .  A
C1097      C1166   1.492       .  S
C1098      O1103   1.268       .  A
C1098      O1101   1.262       .  A
C1098      C1182   1.489       .  S
Cd1099     O1106   2.446       .  S
Cd1099     O1105   2.442       .  S
Cd1099     O1100   2.480       .  S
C1102      O1106   1.264   1_545  A
C1102      C1201   1.480       .  S
O1107     Cd1292   2.495       .  S
O1107      C1110   1.267       .  A
C1108      O1117   1.264       .  A
C1108      O1113   1.268       .  A
C1108      C1169   1.480       .  S
O1109      C1115   1.269       .  A
C1110      C1134   1.478       .  S
C1111      O1114   1.263   1_455  A
C1111      C1153   1.479       .  S
Cd1112     O1287   2.495       .  S
Cd1112     O1117   2.429       .  S
Cd1112     O1113   2.485       .  S
Cd1112     O1114   2.432       .  S
C1115      O1119   1.263       .  A
C1115      C1233   1.499       .  S
O1120     Cd1125   2.480       .  S
O1120      C1123   1.266       .  A
C1121      O1130   1.265       .  A
C1121      O1126   1.265       .  A
C1121      C1185   1.491       .  S
O1122      C1128   1.267       .  A
C1123      C1137   1.491       .  S
C1124      O1127   1.265   1_455  A
C1124      C1150   1.495       .  S
Cd1125     O1130   2.463       .  S
Cd1125     O1126   2.485       .  S
Cd1125     O1127   2.436       .  S
C1128      O1132   1.266       .  A
C1128      C1246   1.487       .  S
C1133      C1134   1.402       .  A
C1133      C1138   1.411       .  A
C1133      H1140   1.083       .  S
C1135      C1136   1.402       .  A
C1135      C1142   1.523       .  S
C1136      H1141   1.082       .  S
C1137      C1138   1.424       .  A
C1138      C1139   1.519       .  S
C1139      F1143   1.385       .  S
C1139      F1144   1.384       .  S
C1139      F1145   1.383       .  S
C1142      F1146   1.384       .  S
C1142      F1147   1.382       .  S
C1142      F1148   1.385       .  S
C1149      C1150   1.408   1_655  A
C1149      C1154   1.403       .  A
C1149      H1156   1.082       .  S
C1151      C1152   1.412       .  A
C1151      C1158   1.520       .  S
C1152      H1157   1.082       .  S
C1153      C1154   1.415   1_455  A
C1154      C1155   1.522       .  S
C1155      F1159   1.385       .  S
C1155      F1160   1.384       .  S
C1155      F1161   1.383       .  S
C1158      F1162   1.383       .  S
C1158      F1163   1.383       .  S
C1158      F1164   1.385       .  S
C1165      C1166   1.407       .  A
C1165      C1170   1.404       .  A
C1165      H1172   1.082       .  S
C1166      C1167   1.423       .  A
C1167      C1168   1.412       .  A
C1167      C1174   1.519       .  S
C1168      C1169   1.403       .  A
C1168      H1173   1.083       .  S
C1169      C1170   1.415       .  A
C1170      C1171   1.521       .  S
C1171      F1175   1.384       .  S
C1171      F1176   1.382       .  S
C1171      F1177   1.384       .  S
C1174      F1178   1.383       .  S
C1174      F1179   1.384       .  S
C1174      F1180   1.385       .  S
C1181      C1182   1.404       .  A
C1181      C1186   1.409       .  A
C1181      H1188   1.081       .  S
C1182      C1183   1.421       .  A
C1183      C1184   1.408       .  A
C1183      C1190   1.521       .  S
C1184      C1185   1.406       .  A
C1184      H1189   1.081       .  S
C1185      C1186   1.421       .  A
C1186      C1187   1.519       .  S
C1187      F1191   1.385       .  S
C1187      F1192   1.383       .  S
C1187      F1193   1.383       .  S
C1190      F1194   1.383       .  S
C1190      F1195   1.384       .  S
C1190      F1196   1.385       .  S
C1197      C1202   1.405       .  A
C1197      H1204   1.084       .  S
C1198      C1199   1.421       .  A
C1199      C1200   1.408       .  A
C1199      C1206   1.517       .  S
C1200      C1381   1.401   1_554  A
C1200      H1205   1.084       .  S
C1201      C1380   1.401       .  A
C1202      C1203   1.515       .  S
C1203      F1209   1.383       .  S
C1206      F1210   1.381   1_545  S
C1206      F1212   1.385       .  S
C1213      C1218   1.408       .  A
C1213      H1220   1.083       .  S
C1214      C1215   1.420       .  A
C1215      C1216   1.405       .  A
C1215      C1222   1.517       .  S
C1216      C1217   1.399       .  A
C1216      H1221   1.084       .  S
C1218      C1219   1.515       .  S
C1219      F1225   1.384       .  S
C1222      F1226   1.382       .  S
C1222      F1228   1.385       .  S
C1229      C1230   1.400       .  A
C1229      C1234   1.406       .  A
C1229      H1236   1.083       .  S
C1230      C1231   1.417       .  A
C1231      C1232   1.412       .  A
C1231      C1238   1.519       .  S
C1232      C1233   1.410       .  A
C1232      H1237   1.083       .  S
C1233      C1234   1.427       .  A
C1234      C1235   1.522       .  S
C1235      F1239   1.385       .  S
C1235      F1240   1.383       .  S
C1238      F1242   1.382       .  S
C1238      F1243   1.383       .  S
C1238      F1424   1.385   1_554  S
F1244      C1418   1.385       .  S
C1245      C1246   1.405       .  A
C1245      C1250   1.410       .  A
C1245      H1252   1.083       .  S
C1246      C1247   1.418       .  A
C1247      C1248   1.410       .  A
C1247      C1254   1.520       .  S
C1248      C1249   1.407       .  A
C1248      H1253   1.083       .  S
C1249      C1250   1.420       .  A
C1250      C1251   1.519       .  S
C1251      F1255   1.385       .  S
C1251      F1256   1.383       .  S
C1251      F1257   1.383       .  S
C1254      F1258   1.384       .  S
C1254      F1260   1.384       .  S
O1261     Cd1266   2.485       .  S
C1262      O1271   1.265       .  A
C1262      O1267   1.268       .  A
C1262      C1429   1.491       .  S
O1263      C1269   1.264       .  A
C1264      O1272   1.262   1_545  A
C1264      C1378   1.483       .  S
C1265      O1268   1.262       .  A
C1265      C1394   1.481       .  S
Cd1266     O1271   2.462       .  S
Cd1266     O1267   2.506       .  S
Cd1266     O1268   2.433       .  S
C1269      O1273   1.262       .  A
C1269      C1410   1.486       .  S
O1274     Cd1279   2.489       .  S
O1274      C1277   1.266       .  A
C1275      O1284   1.263       .  A
C1275      C1397   1.476       .  S
C1277      O1285   1.265       .  A
C1277      C1346   1.492       .  S
C1278      O1283   1.268       .  A
C1278      O1281   1.262       .  A
C1278      C1362   1.489       .  S
Cd1279     O1286   2.446       .  S
Cd1279     O1285   2.442       .  S
Cd1279     O1280   2.480       .  S
C1282      O1286   1.264   1_545  A
C1282      C1381   1.480       .  S
O1287      C1290   1.267       .  A
C1288      O1297   1.264       .  A
C1288      O1293   1.268       .  A
C1288      C1349   1.480       .  S
O1289      C1295   1.269       .  A
C1290      C1314   1.478       .  S
C1291      O1294   1.263   1_455  A
C1291      C1333   1.479       .  S
Cd1292     O1297   2.429   1_554  S
Cd1292     O1293   2.485   1_554  S
Cd1292     O1294   2.432   1_554  S
C1295      O1299   1.263       .  A
C1295      C1413   1.499       .  S
O1300     Cd1305   2.480       .  S
O1300      C1303   1.266       .  A
C1301      O1310   1.265       .  A
C1301      O1306   1.265       .  A
C1301      C1365   1.491       .  S
O1302      C1308   1.267       .  A
C1303      C1317   1.491       .  S
C1304      O1307   1.265   1_455  A
C1304      C1330   1.495       .  S
Cd1305     O1310   2.463       .  S
Cd1305     O1306   2.485       .  S
Cd1305     O1307   2.436       .  S
C1308      O1312   1.266       .  A
C1308      C1426   1.487       .  S
C1313      C1314   1.402       .  A
C1313      C1318   1.411       .  A
C1313      H1320   1.083       .  S
C1315      C1316   1.402       .  A
C1315      C1322   1.523       .  S
C1316      H1321   1.082       .  S
C1317      C1318   1.424       .  A
C1318      C1319   1.519       .  S
C1319      F1323   1.385       .  S
C1319      F1324   1.384       .  S
C1319      F1325   1.383       .  S
C1322      F1326   1.384       .  S
C1322      F1327   1.382       .  S
C1322      F1328   1.385       .  S
C1329      C1330   1.408   1_655  A
C1329      C1334   1.403       .  A
C1329      H1336   1.082       .  S
C1331      C1332   1.412       .  A
C1331      C1338   1.520       .  S
C1332      H1337   1.082       .  S
C1333      C1334   1.415   1_455  A
C1334      C1335   1.522       .  S
C1335      F1339   1.385       .  S
C1335      F1340   1.384       .  S
C1335      F1341   1.383       .  S
C1338      F1342   1.383       .  S
C1338      F1343   1.383       .  S
C1338      F1344   1.385       .  S
C1345      C1346   1.407       .  A
C1345      C1350   1.404       .  A
C1345      H1352   1.082       .  S
C1346      C1347   1.423       .  A
C1347      C1348   1.412       .  A
C1347      C1354   1.519       .  S
C1348      C1349   1.403       .  A
C1348      H1353   1.083       .  S
C1349      C1350   1.415       .  A
C1350      C1351   1.521       .  S
C1351      F1355   1.384       .  S
C1351      F1356   1.382       .  S
C1351      F1357   1.384   1_556  S
C1354      F1358   1.383       .  S
C1354      F1359   1.384       .  S
C1354      F1360   1.385       .  S
C1361      C1362   1.404       .  A
C1361      C1366   1.409       .  A
C1361      H1368   1.081       .  S
C1362      C1363   1.421       .  A
C1363      C1364   1.408       .  A
C1363      C1370   1.521       .  S
C1364      C1365   1.406       .  A
C1364      H1369   1.081       .  S
C1365      C1366   1.421       .  A
C1366      C1367   1.519       .  S
C1367      F1371   1.385       .  S
C1367      F1372   1.383       .  S
C1367      F1373   1.383       .  S
C1370      F1374   1.383       .  S
C1370      F1375   1.384       .  S
C1370      F1376   1.385       .  S
C1377      C1382   1.405       .  A
C1377      H1384   1.084       .  S
C1378      C1379   1.421       .  A
C1379      C1380   1.408       .  A
C1379      C1386   1.517       .  S
C1380      H1385   1.084       .  S
C1382      C1383   1.515       .  S
C1383      F1389   1.383       .  S
C1386      F1390   1.381   1_545  S
C1386      F1392   1.385       .  S
C1393      C1398   1.408       .  A
C1393      H1400   1.083       .  S
C1394      C1395   1.420       .  A
C1395      C1396   1.405       .  A
C1395      C1402   1.517       .  S
C1396      C1397   1.399       .  A
C1396      H1401   1.084       .  S
C1398      C1399   1.515       .  S
C1399      F1405   1.384       .  S
C1402      F1406   1.382       .  S
C1402      F1408   1.385       .  S
C1409      C1410   1.400       .  A
C1409      C1414   1.406       .  A
C1409      H1416   1.083       .  S
C1410      C1411   1.417       .  A
C1411      C1412   1.412       .  A
C1411      C1418   1.519       .  S
C1412      C1413   1.410       .  A
C1412      H1417   1.083       .  S
C1413      C1414   1.427       .  A
C1414      C1415   1.522       .  S
C1415      F1419   1.385       .  S
C1415      F1420   1.383       .  S
C1418      F1422   1.382       .  S
C1418      F1423   1.383       .  S
C1425      C1426   1.405       .  A
C1425      C1430   1.410       .  A
C1425      H1432   1.083       .  S
C1426      C1427   1.418       .  A
C1427      C1428   1.410       .  A
C1427      C1434   1.520       .  S
C1428      C1429   1.407       .  A
C1428      H1433   1.083       .  S
C1429      C1430   1.420       .  A
C1430      C1431   1.519       .  S
C1431      F1435   1.385       .  S
C1431      F1436   1.383       .  S
C1431      F1437   1.383       .  S
C1434      F1438   1.384       .  S
C1434      F1440   1.384       .  S
