geometry optimzed in LAMMPS
_audit_creation_date              2020-12-01 
_audit_creation_method            'lammps2cif' 
_symmetry_space_group_name_H-M    'P1' 
_symmetry_Int_Tables_number       1 
_symmetry_cell_setting            triclinic 
loop_ 
_symmetry_equiv_pos_as_xyz 
  x,y,z 
_cell_length_a                    24.99979321 
_cell_length_b                    24.903849004311976 
_cell_length_c                    42.48367301216086 
_cell_angle_alpha                 90.05306121656069 
_cell_angle_beta                  89.91017725392466 
_cell_angle_gamma                 90.02951514491842 
loop_ 
_atom_site_label 
_atom_site_type_symbol 
_atom_site_fract_x 
_atom_site_fract_y 
_atom_site_fract_z 
_atom_site_charge 
O1          O  0.02375147  0.84242220  0.56687882    -0.72500
O2          O  0.13328959  0.82791954  0.50387346    -0.72500
O3          O  0.11231474  0.78216566  0.56007570    -0.72600
O4          O  0.04258263  0.88817957  0.51091619    -0.72600
O5          O  0.08780279  0.95249836  0.53602879    -0.72600
O6          O  0.16338485  0.84489991  0.58272460    -0.72500
O7          O  0.17904792  0.89456346  0.52640678    -0.72500
O8          O  0.07381210  0.90286102  0.59214725    -0.72600
Ni9        Ni  0.07647938  0.83298609  0.53441076     1.25400
Ni10       Ni  0.12791160  0.90115683  0.56001644     1.25400
C11         C  0.03144816  0.87414797  0.59023407     0.89700
C12         C  0.17445508  0.85857708  0.50498031     0.89600
C13         C  0.14789952  0.79611050  0.58000989     0.89600
C14         C  0.05146136  0.93779749  0.51659674     0.89800
O15         O  0.87623886  0.73697769  0.66768271    -0.72500
O16         O  0.86669507  0.86915973  0.71428024    -0.72500
O17         O  0.82334834  0.76785014  0.71963379    -0.72600
O18         O  0.92016649  0.83544847  0.66208181    -0.72600
O19         O  0.85159877  0.85941668  0.63162584    -0.72600
O20         O  0.75440693  0.79460264  0.69025310    -0.72500
O21         O  0.79784522  0.89409665  0.68432155    -0.72500
O22         O  0.80653757  0.76181490  0.63835370    -0.72600
Ni23       Ni  0.87402016  0.80179367  0.69213276     1.25400
Ni24       Ni  0.80017860  0.82880290  0.66018107     1.25400
C25         C  0.84286767  0.72772665  0.64545080     0.89700
C26         C  0.83048685  0.90339910  0.70688233     0.89600
C27         C  0.77322567  0.76783962  0.71345187     0.89600
C28         C  0.90204340  0.85573402  0.63655032     0.89800
O29         O  0.10549660  0.67932465  0.66428580    -0.72500
O30         O  0.12099773  0.55087492  0.71261752    -0.72500
O31         O  0.16154253  0.65210189  0.71524832    -0.72600
O32         O  0.06409046  0.58015939  0.66075138    -0.72600
O33         O  0.13136362  0.55900308  0.62845338    -0.72600
O34         O  0.23020114  0.62356197  0.68606057    -0.72500
O35         O  0.18552443  0.52341483  0.67999773    -0.72500
O36         O  0.17626805  0.65635257  0.63509591    -0.72600
Ni37       Ni  0.11067585  0.61612212  0.68947436     1.25400
Ni38       Ni  0.18343659  0.58923449  0.65645911     1.25400
C39         C  0.13862441  0.68913317  0.64204085     0.89700
C40         C  0.15506566  0.51550761  0.70381275     0.89600
C41         C  0.21146596  0.65213733  0.70860623     0.89600
C42         C  0.08123645  0.56137036  0.63453763     0.89800
O43         O  0.95636092  0.58037843  0.56754630    -0.72500
O44         O  0.84822306  0.58940701  0.50349428    -0.72500
O45         O  0.86602781  0.63802688  0.56007696    -0.72600
O46         O  0.94020697  0.53411150  0.51163833    -0.72600
O47         O  0.89478653  0.46807217  0.53495064    -0.72600
O48         O  0.81986917  0.57371706  0.58473273    -0.72500
O49         O  0.80161214  0.52548190  0.52805703    -0.72500
O50         O  0.90969124  0.51581705  0.59159411    -0.72600
Ni51       Ni  0.90400382  0.58783105  0.53476342     1.25400
Ni52       Ni  0.85455746  0.51830008  0.56050726     1.25400
C53         C  0.95055431  0.54653456  0.59005439     0.89700
C54         C  0.80706033  0.55879273  0.50531668     0.89600
C55         C  0.83307288  0.62313830  0.58133534     0.89600
C56         C  0.93170075  0.48416629  0.51609379     0.89800
O57         O  0.61745560  0.68421429  0.81611836    -0.72500
O58         O  0.60201313  0.57647554  0.75183257    -0.72500
O59         O  0.55591896  0.59652392  0.80909397    -0.72600
O60         O  0.66145643  0.66668866  0.75961643    -0.72600
O61         O  0.72572659  0.61825346  0.78226803    -0.72600
O62         O  0.61864882  0.54754438  0.83302341    -0.72500
O63         O  0.66428928  0.52717494  0.77580987    -0.72500
O64         O  0.68037136  0.63453709  0.83939460    -0.72600
Ni65       Ni  0.60691581  0.63237632  0.78320064     1.25400
Ni66       Ni  0.67466010  0.57980878  0.80819596     1.25400
C67         C  0.65104653  0.67642357  0.83845737     0.89700
C68         C  0.63071481  0.53386547  0.75343360     0.89600
C69         C  0.57005118  0.56343237  0.83047058     0.89600
C70         C  0.71094414  0.65627918  0.76377788     0.89800
O71         O  0.47061182  0.61617577  0.92137974    -0.72500
O72         O  0.34793420  0.61397842  0.97592586    -0.72500
O73         O  0.44670205  0.56638517  0.97578880    -0.72600
O74         O  0.37361225  0.66408312  0.92201872    -0.72600
O75         O  0.34213075  0.59563058  0.89349688    -0.72600
O76         O  0.41220771  0.49723227  0.94922819    -0.72500
O77         O  0.31434308  0.54568943  0.94825353    -0.72500
O78         O  0.43814633  0.54611263  0.89475576    -0.72600
Ni79       Ni  0.41081564  0.61748800  0.94986501     1.25400
Ni80       Ni  0.37527413  0.54362396  0.92057875     1.25400
C81         C  0.47450237  0.58154243  0.89912877     0.89700
C82         C  0.31030638  0.58022891  0.97053188     0.89600
C83         C  0.44305320  0.51588531  0.97067695     0.89600
C84         C  0.34732491  0.64612413  0.89852389     0.89800
O85         O  0.36766524  0.74269086  0.80400133    -0.72500
O86         O  0.35357357  0.87184799  0.75555687    -0.72500
O87         O  0.40846036  0.84252319  0.80801344    -0.72600
O88         O  0.31340469  0.76969044  0.75225151    -0.72600
O89         O  0.24394180  0.79455577  0.78195497    -0.72600
O90         O  0.33942288  0.86748119  0.83799224    -0.72500
O91         O  0.28346403  0.89601818  0.78488373    -0.72500
O92         O  0.29878111  0.76817883  0.83398648    -0.72600
Ni93       Ni  0.36319270  0.80621019  0.77873126     1.25400
Ni94       Ni  0.28889714  0.83289434  0.81062764     1.25400
C95         C  0.33574984  0.73456092  0.82710671     0.89700
C96         C  0.31589535  0.90497528  0.76213157     0.89600
C97         C  0.38990267  0.86382920  0.83320872     0.89600
C98         C  0.26357959  0.76741944  0.75910485     0.89800
O99         O  0.51392215  0.84306717  0.90086071    -0.72500
O100        O  0.62300687  0.82995791  0.96419487    -0.72500
O101        O  0.52997886  0.88441263  0.95838200    -0.72600
O102        O  0.60574903  0.78677619  0.90618173    -0.72600
O103        O  0.64895848  0.85435403  0.88280678    -0.72600
O104        O  0.57528595  0.95278761  0.93733185    -0.72500
O105        O  0.66881137  0.89593040  0.94099546    -0.72500
O106        O  0.55863820  0.91130263  0.87913308    -0.72600
Ni107      Ni  0.56683375  0.83356986  0.93325955     1.25400
Ni108      Ni  0.61474612  0.90616007  0.90950057     1.25400
C109        C  0.51877874  0.87917746  0.87949958     0.89700
C110        C  0.66403782  0.86078658  0.96281722     0.89600
C111        C  0.53890558  0.93467971  0.95586525     0.89600
C112        C  0.63729106  0.80441496  0.88480312     0.89800
O113        O  0.52691243  0.35414792  0.07040811    -0.72500
O114        O  0.64459112  0.35524776  0.01164663    -0.72500
O115        O  0.62151001  0.30241573  0.06573242    -0.72600
O116        O  0.54797419  0.40583980  0.01632643    -0.72600
O117        O  0.58486721  0.47223367  0.04411813    -0.72600
O118        O  0.66091875  0.36757945  0.09336260    -0.72500
O119        O  0.68144946  0.42269942  0.03859068    -0.72500
O120        O  0.56710132  0.41839069  0.09843700    -0.72600
Ni121      Ni  0.58410136  0.35211445  0.03992267     1.25400
Ni122      Ni  0.62529213  0.42264289  0.06943104     1.25400
C123        C  0.52845861  0.38556366  0.09437884     0.89700
C124        C  0.68219058  0.38974168  0.01546649     0.89600
C125        C  0.65101682  0.31768031  0.08861306     0.89600
C126        C  0.55226910  0.45575693  0.02291134     0.89800
O127        O  0.37422069  0.23815684  0.16695244    -0.72500
O128        O  0.35954910  0.36833194  0.21476133    -0.72500
O129        O  0.31880375  0.26582953  0.21856663    -0.72600
O130        O  0.41514585  0.33779042  0.16275659    -0.72600
O131        O  0.34693817  0.36070314  0.13173696    -0.72600
O132        O  0.25005989  0.29192897  0.18880969    -0.72500
O133        O  0.29109329  0.39256531  0.18428376    -0.72500
O134        O  0.30455463  0.26194240  0.13727390    -0.72600
Ni135      Ni  0.36932025  0.30199073  0.19199814     1.25400
Ni136      Ni  0.29572201  0.32806328  0.15955800     1.25400
C137        C  0.34173360  0.22876270  0.14432797     0.89700
C138        C  0.32278506  0.40190191  0.20730814     0.89600
C139        C  0.26887347  0.26492667  0.21189485     0.89600
C140        C  0.39725756  0.35816059  0.13718334     0.89800
O141        O  0.62848890  0.18727094  0.14993451    -0.72500
O142        O  0.60543384  0.06983542  0.20697671    -0.72500
O143        O  0.66597928  0.16080774  0.20685391    -0.72600
O144        O  0.56720171  0.09796225  0.14984490    -0.72600
O145        O  0.63283881  0.05165805  0.12672630    -0.72600
O146        O  0.73308779  0.11737219  0.18328200    -0.72500
O147        O  0.67361114  0.02593475  0.18485280    -0.72500
O148        O  0.69302989  0.14077194  0.12583889    -0.72600
Ni149      Ni  0.61442681  0.13035434  0.17932998     1.25400
Ni150      Ni  0.68556849  0.08200100  0.15451792     1.25400
C151        C  0.66397516  0.18280183  0.12824832     0.89700
C152        C  0.63609141  0.02868477  0.20539379     0.89600
C153        C  0.71592182  0.15152608  0.20348617     0.89600
C154        C  0.58374045  0.06626686  0.12821544     0.89800
O155        O  0.45754537  0.08697518  0.06120882    -0.72500
O156        O  0.34329598  0.09807232  0.00092474    -0.72500
O157        O  0.36560277  0.14315186  0.05769605    -0.72600
O158        O  0.43714284  0.04381154  0.00467882    -0.72600
O159        O  0.39473704  0.97587415  0.02816348    -0.72600
O160        O  0.32255276  0.07649332  0.08219351    -0.72500
O161        O  0.30045078  0.03164329  0.02560897    -0.72500
O162        O  0.41385698  0.02032727  0.08526845    -0.72600
Ni163      Ni  0.40220939  0.09540204  0.03016601     1.25400
Ni164      Ni  0.35623035  0.02348012  0.05595613     1.25400
C165        C  0.45371344  0.05224299  0.08339641     0.89700
C166        C  0.30257725  0.06707340  0.00385365     0.89600
C167        C  0.33422382  0.12633476  0.07929044     0.89600
C168        C  0.42943600  0.99356999  0.00840737     0.89800
O169        O  0.88320584  0.23169658  0.30228942    -0.72500
O170        O  0.87695708  0.34932768  0.24421891    -0.72500
O171        O  0.93264361  0.32803022  0.29744512    -0.72600
O172        O  0.82876005  0.25238839  0.24947157    -0.72600
O173        O  0.76331871  0.29153200  0.27694274    -0.72600
O174        O  0.86804981  0.36259932  0.32770370    -0.72500
O175        O  0.81467501  0.38829326  0.27420943    -0.72500
O176        O  0.81694843  0.26812989  0.33038863    -0.72600
Ni177      Ni  0.88272597  0.28923082  0.27226709     1.25400
Ni178      Ni  0.81327717  0.32921063  0.30319001     1.25400
C179        C  0.85101453  0.23055699  0.32578373     0.89700
C180        C  0.84536060  0.38857730  0.25001525     0.89600
C181        C  0.91757674  0.35550003  0.32127731     0.89600
C182        C  0.77913672  0.25835114  0.25582264     0.89800
O183        O  0.01140253  0.32882651  0.41479252    -0.72500
O184        O  0.14175245  0.33205330  0.46236292    -0.72500
O185        O  0.04186009  0.37595273  0.46852610    -0.72600
O186        O  0.10879754  0.28404001  0.40835022    -0.72600
O187        O  0.13562599  0.35500458  0.38042148    -0.72600
O188        O  0.06945137  0.44742385  0.44126412    -0.72500
O189        O  0.16824314  0.40385906  0.43502351    -0.72500
O190        O  0.03924080  0.39992005  0.38724675    -0.72600
Ni191      Ni  0.07533048  0.32766014  0.43962525     1.25400
Ni192      Ni  0.10448461  0.40413129  0.41016211     1.25400
C193        C  0.00449215  0.36348866  0.39292064     0.89700
C194        C  0.17623057  0.36887684  0.45650949     0.89600
C195        C  0.04241997  0.42667014  0.46383748     0.89600
C196        C  0.13029467  0.30413187  0.38364540     0.89800
O197        O  0.11271195  0.18219382  0.31347539    -0.72500
O198        O  0.09998780  0.07129882  0.25055514    -0.72500
O199        O  0.05260312  0.09277367  0.30720234    -0.72600
O200        O  0.15790834  0.16259770  0.25744484    -0.72600
O201        O  0.22249499  0.11542966  0.28070392    -0.72600
O202        O  0.11597569  0.04695975  0.33264951    -0.72500
O203        O  0.16200894  0.02352241  0.27574942    -0.72500
O204        O  0.17671470  0.13483566  0.33732400    -0.72600
Ni205      Ni  0.10348148  0.12855899  0.28119372     1.25400
Ni206      Ni  0.17167334  0.07815555  0.30723063     1.25400
C207        C  0.14667787  0.17621240  0.33584490     0.89700
C208        C  0.12907855  0.02904122  0.25290295     0.89600
C209        C  0.06706811  0.06136565  0.32934653     0.89600
C210        C  0.20745437  0.15266591  0.26177770     0.89800
O211        O  0.97502780  0.10949661  0.42332038    -0.72500
O212        O  0.85345959  0.10773799  0.47882954    -0.72500
O213        O  0.94878479  0.05604018  0.47577745    -0.72600
O214        O  0.88086697  0.16310290  0.42581371    -0.72600
O215        O  0.84708684  0.09933944  0.39464422    -0.72600
O216        O  0.90830661  0.99172545  0.44799057    -0.72500
O217        O  0.81401812  0.04727481  0.44779030    -0.72500
O218        O  0.93874633  0.04305042  0.39526426    -0.72600
Ni219      Ni  0.91556748  0.11148112  0.45206678     1.25400
Ni220      Ni  0.87532453  0.04306061  0.42050235     1.25400
C221        C  0.97718949  0.07580450  0.40049676     0.89700
C222        C  0.81364739  0.07721580  0.47233679     0.89600
C223        C  0.94134566  0.00643759  0.46936304     0.89600
C224        C  0.85568807  0.14891305  0.40098914     0.89800
O225        O  0.61921881  0.24375651  0.65123260    -0.72500
O226        O  0.60409971  0.35409564  0.71404017    -0.72500
O227        O  0.55466364  0.32973334  0.65855040    -0.72600
O228        O  0.66644491  0.26597937  0.70593466    -0.72600
O229        O  0.72697131  0.31637147  0.68106987    -0.72600
O230        O  0.61396036  0.37916501  0.63188504    -0.72500
O231        O  0.66213569  0.40499752  0.68750659    -0.72500
O232        O  0.67888184  0.29448623  0.62572509    -0.72600
Ni233      Ni  0.60888498  0.29697154  0.68348235     1.25400
Ni234      Ni  0.67270099  0.35093224  0.65586753     1.25400
C235        C  0.65165173  0.25131717  0.62821413     0.89700
C236        C  0.63073268  0.39783237  0.71097520     0.89600
C237        C  0.56615180  0.36202787  0.63620212     0.89600
C238        C  0.71508210  0.27815343  0.70012357     0.89800
O239        O  0.47207458  0.30795222  0.54409681    -0.72500
O240        O  0.35106106  0.30638576  0.48853649    -0.72500
O241        O  0.44795971  0.35795447  0.48998259    -0.72600
O242        O  0.37686034  0.25590780  0.54246631    -0.72600
O243        O  0.34208126  0.32250523  0.57117193    -0.72600
O244        O  0.40946553  0.42474012  0.51677245    -0.72500
O245        O  0.31391700  0.37213500  0.51676816    -0.72500
O246        O  0.43587025  0.37588683  0.57098636    -0.72600
Ni247      Ni  0.41317147  0.30471277  0.51516918     1.25400
Ni248      Ni  0.37378327  0.37624899  0.54476750     1.25400
C249        C  0.47394252  0.34240685  0.56652130     0.89700
C250        C  0.31192276  0.33826404  0.49407424     0.89600
C251        C  0.44193610  0.40808887  0.49554926     0.89600
C252        C  0.34948469  0.27234268  0.56600345     0.89800
O253        O  0.37248133  0.19189325  0.66270328    -0.72500
O254        O  0.37955347  0.06891327  0.71634864    -0.72500
O255        O  0.42131712  0.09555835  0.65988024    -0.72600
O256        O  0.33015898  0.16703504  0.71859324    -0.72600
O257        O  0.25889071  0.13258573  0.69423386    -0.72600
O258        O  0.35023982  0.06058896  0.63556117    -0.72500
O259        O  0.30742752  0.03451881  0.69289853    -0.72500
O260        O  0.30217219  0.15658952  0.63775053    -0.72600
Ni261      Ni  0.37834953  0.13181004  0.69039920     1.25400
Ni262      Ni  0.30201269  0.09452144  0.66444298     1.25400
C263        C  0.33690557  0.19400334  0.64114343     0.89700
C264        C  0.34513134  0.03122549  0.71327106     0.89600
C265        C  0.40071428  0.06847110  0.63729148     0.89600
C266        C  0.27946252  0.16387910  0.71484554     0.89800
O267        O  0.52094181  0.07904898  0.56777233    -0.72500
O268        O  0.63145752  0.09142838  0.50514722    -0.72500
O269        O  0.53864457  0.03584925  0.51106359    -0.72600
O270        O  0.61172627  0.13626987  0.56224352    -0.72600
O271        O  0.65501638  0.07028794  0.58694028    -0.72600
O272        O  0.58333828  0.96827054  0.53318109    -0.72500
O273        O  0.67702373  0.02659128  0.52944746    -0.72500
O274        O  0.56568658  0.01202455  0.59064325    -0.72600
Ni275      Ni  0.57436863  0.08795616  0.53560524     1.25400
Ni276      Ni  0.62217944  0.01668270  0.56059974     1.25400
C277        C  0.52588451  0.04405627  0.58973760     0.89700
C278        C  0.67304399  0.06161445  0.50751663     0.89600
C279        C  0.54673898  0.98562929  0.51457242     0.89600
C280        C  0.64258565  0.12001150  0.58421887     0.89800
O281        O  0.11609311  0.24427785  0.80789200    -0.72500
O282        O  0.12789216  0.37418120  0.76039022    -0.72500
O283        O  0.17327018  0.27519579  0.75809503    -0.72600
O284        O  0.06974708  0.34151242  0.81132173    -0.72600
O285        O  0.13439006  0.36779163  0.84407644    -0.72600
O286        O  0.23890154  0.30499098  0.78909537    -0.72500
O287        O  0.19082645  0.40379134  0.79332482    -0.72500
O288        O  0.18204830  0.27204761  0.83936723    -0.72600
Ni289      Ni  0.11947520  0.30822245  0.78315208     1.25400
Ni290      Ni  0.18904696  0.33855907  0.81742082     1.25400
C291        C  0.14694804  0.23708171  0.83149910     0.89700
C292        C  0.16083084  0.41059708  0.76924762     0.89600
C293        C  0.22266409  0.27648904  0.76587023     0.89600
C294        C  0.08474829  0.36211078  0.83752028     0.89800
O295        O  0.95629271  0.33645785  0.90322925    -0.72500
O296        O  0.84292338  0.32458050  0.96433530    -0.72500
O297        O  0.86435985  0.27999538  0.90765115    -0.72600
O298        O  0.93716848  0.37973970  0.95995190    -0.72600
O299        O  0.89574585  0.44795621  0.93631422    -0.72600
O300        O  0.82060303  0.34680666  0.88389547    -0.72500
O301        O  0.80118553  0.39322475  0.94133640    -0.72500
O302        O  0.91181811  0.40248511  0.87923222    -0.72600
Ni303      Ni  0.90149912  0.32785385  0.93477076     1.25400
Ni304      Ni  0.85548337  0.40012827  0.90957473     1.25400
C305        C  0.95196534  0.37096447  0.88093760     0.89700
C306        C  0.80317574  0.35703623  0.96272940     0.89600
C307        C  0.83275420  0.29693491  0.88630937     0.89600
C308        C  0.93076792  0.43012467  0.95573447     0.89800
O309        O  0.88131282  0.20456994  0.79395280    -0.72500
O310        O  0.89071867  0.07750099  0.74287618    -0.72500
O311        O  0.83560056  0.17297900  0.74021453    -0.72600
O312        O  0.93685494  0.11145077  0.79686326    -0.72600
O313        O  0.87043354  0.07639135  0.82543432    -0.72600
O314        O  0.76903235  0.13460245  0.76711588    -0.72500
O315        O  0.82459141  0.04049366  0.77070963    -0.72500
O316        O  0.81393099  0.16811563  0.82104710    -0.72600
Ni317      Ni  0.88845725  0.14265975  0.76735604     1.25400
Ni318      Ni  0.81711153  0.10321463  0.79691925     1.25400
C319        C  0.84592669  0.20725742  0.81575677     0.89700
C320        C  0.85964228  0.03771966  0.74868623     0.89600
C321        C  0.78563971  0.16636557  0.74550757     0.89600
C322        C  0.92028849  0.08601861  0.82111165     0.93000
O323        O  0.00335525  0.11532896  0.92055959    -0.72500
O324        O  0.12145954  0.10347575  0.97796185    -0.72500
O325        O  0.10082698  0.16238711  0.92589651    -0.72600
O326        O  0.02318813  0.05779875  0.97261950    -0.72600
O327        O  0.06128078  0.99273329  0.94421115    -0.72600
O328        O  0.13295661  0.09838565  0.89420498    -0.72500
O329        O  0.15892481  0.04225928  0.94649125    -0.72500
O330        O  0.03768851  0.04876904  0.89171011    -0.72600
Ni331      Ni  0.06111165  0.11208374  0.95039315     1.25400
Ni332      Ni  0.09913853  0.04306228  0.91822297     1.25400
C333        C  0.00108963  0.08367863  0.89676534     0.89700
C334        C  0.16017639  0.07177120  0.97117370     0.89600
C335        C  0.12777548  0.14788197  0.90176862     0.89600
C336        C  0.02848778  0.00819379  0.96560781     0.89800
O337        O  0.36090182  0.69018122  0.31073260    -0.72500
O338        O  0.37830500  0.57251854  0.25239642    -0.72500
O339        O  0.32184723  0.66685030  0.25326226    -0.72600
O340        O  0.41836107  0.59819095  0.30954719    -0.72600
O341        O  0.35080254  0.55491759  0.33274959    -0.72600
O342        O  0.25319339  0.62491549  0.27616172    -0.72500
O343        O  0.30913948  0.53086803  0.27488222    -0.72500
O344        O  0.29391767  0.64593227  0.33391336    -0.72600
Ni345      Ni  0.37221043  0.63330462  0.28051123     1.25400
Ni346      Ni  0.29923575  0.58742933  0.30502385     1.25400
C347        C  0.32524216  0.68638423  0.33243063     0.89700
C348        C  0.34675438  0.53195493  0.25438848     0.89600
C349        C  0.27156947  0.65908471  0.25629741     0.89600
C350        C  0.40058550  0.56708629  0.33109851     0.89800
O351        O  0.52177673  0.57812600  0.40054344    -0.72500
O352        O  0.63017121  0.58629584  0.46445284    -0.72500
O353        O  0.60899520  0.63952633  0.40953863    -0.72600
O354        O  0.54110908  0.52682396  0.45454241    -0.72600
O355        O  0.58902417  0.46601054  0.42822157    -0.72600
O356        O  0.65978274  0.58055525  0.38348423    -0.72500
O357        O  0.67934026  0.52664732  0.43796161    -0.72500
O358        O  0.57211645  0.51987232  0.37367116    -0.72600
Ni359      Ni  0.57413380  0.58486610  0.43331071     1.25400
Ni360      Ni  0.62705225  0.52096381  0.40505457     1.25400
C361        C  0.52954293  0.54793021  0.37651024     0.89700
C362        C  0.67253495  0.55761326  0.46172233     0.89600
C363        C  0.64345914  0.62868855  0.38820376     0.89600
C364        C  0.55174345  0.47798477  0.44785097     0.89800
O365        O  0.46264074  0.83188461  0.41442693    -0.72500
O366        O  0.32950716  0.84361910  0.45918330    -0.72500
O367        O  0.36303834  0.79300240  0.40578977    -0.72600
O368        O  0.43158402  0.88148305  0.46721681    -0.72600
O369        O  0.40933910  0.95424187  0.43950825    -0.72600
O370        O  0.34341689  0.86519818  0.37698256    -0.72500
O371        O  0.30889668  0.91622585  0.43096793    -0.72500
O372        O  0.44178916  0.90499791  0.38669360    -0.72600
Ni373      Ni  0.39698691  0.83487294  0.43775846     1.25400
Ni374      Ni  0.37463510  0.91270828  0.40761891     1.25400
C375        C  0.47412108  0.86687065  0.39338415     0.89700
C376        C  0.29774488  0.88255253  0.45276817     0.89600
C377        C  0.34526724  0.81410918  0.38038855     0.89600
C378        C  0.43407950  0.93215394  0.46246729     0.89800
O379        O  0.60287135  0.74995403  0.30506506    -0.72500
O380        O  0.62318702  0.87398108  0.25293136    -0.72500
O381        O  0.66435907  0.77244014  0.25473925    -0.72600
O382        O  0.56176647  0.84952794  0.30321228    -0.72600
O383        O  0.62599581  0.87505112  0.33656062    -0.72600
O384        O  0.72984411  0.80242374  0.28582457    -0.72500
O385        O  0.68736649  0.90258371  0.28533420    -0.72500
O386        O  0.66997251  0.77617818  0.33611868    -0.72600
Ni387      Ni  0.61086717  0.81065969  0.27772394     1.25400
Ni388      Ni  0.68064852  0.84047059  0.31203548     1.25400
C389        C  0.63307698  0.74261961  0.32901044     0.89700
C390        C  0.65854050  0.90884568  0.26067587     0.89600
C391        C  0.71359309  0.77328722  0.26294443     0.89600
C392        C  0.57661959  0.87232466  0.32865564     0.89800
O393        O  0.11803186  0.73936641  0.15011402    -0.72500
O394        O  0.10427382  0.85071077  0.21242703    -0.72500
O395        O  0.05979466  0.83027760  0.15495603    -0.72600
O396        O  0.16068528  0.75827113  0.20686135    -0.72600
O397        O  0.22714348  0.80457045  0.18465407    -0.72600
O398        O  0.12542557  0.87429784  0.13037659    -0.72500
O399        O  0.16819015  0.89750227  0.18807611    -0.72500
O400        O  0.18440621  0.78492018  0.12716029    -0.72600
Ni401      Ni  0.10828788  0.79335478  0.18199217     1.25400
Ni402      Ni  0.17876691  0.84224746  0.15695632     1.25400
C403        C  0.15335367  0.74419452  0.12834956     0.89700
C404        C  0.13405924  0.89251626  0.21042495     0.89600
C405        C  0.07598544  0.86137621  0.13293238     0.89600
C406        C  0.21054924  0.76798962  0.20361256     0.89800
O407        O  0.95281172  0.84238036  0.06431966    -0.72500
O408        O  0.84239999  0.83069894  0.00163235    -0.72500
O409        O  0.93159015  0.89049328  0.00939394    -0.72600
O410        O  0.86533058  0.78039998  0.05701977    -0.72600
O411        O  0.81711259  0.84105684  0.08349090    -0.72600
O412        O  0.88373696  0.95268693  0.03465199    -0.72500
O413        O  0.79370197  0.89078221  0.02809548    -0.72500
O414        O  0.90384145  0.90313071  0.09016438    -0.72600
Ni415      Ni  0.89944527  0.83376901  0.03207862     1.25400
Ni416      Ni  0.84759391  0.89925248  0.05982481     1.25400
C417        C  0.94592483  0.87433820  0.08769748     0.89700
C418        C  0.79984830  0.85901855  0.00464573     0.89600
C419        C  0.92044053  0.93959879  0.01490604     0.89600
C420        C  0.83287731  0.79266643  0.07910830     0.89800
O421        O  0.01434047  0.58870740  0.05397339    -0.72500
O422        O  0.14386523  0.58101027  0.00549189    -0.72500
O423        O  0.04328339  0.53719579  0.00129960    -0.72600
O424        O  0.11251695  0.63291340  0.05845429    -0.72600
O425        O  0.13963823  0.56356171  0.08758069    -0.72600
O426        O  0.06999131  0.46743201  0.03022673    -0.72500
O427        O  0.16991108  0.51036470  0.03387482    -0.72500
O428        O  0.04201211  0.51978612  0.08330394    -0.72600
Ni429      Ni  0.07785941  0.58737514  0.02862245     1.25400
Ni430      Ni  0.10671274  0.51272900  0.05962125     1.25400
C431        C  0.00738389  0.55597734  0.07685537     0.89700
C432        C  0.17825152  0.54439846  0.01183765     0.89600
C433        C  0.04278583  0.48687583  0.00739718     0.89600
C434        C  0.13489719  0.61422804  0.08321703     0.89800
O435        O  0.88368680  0.69037166  0.16874056    -0.72500
O436        O  0.87343786  0.57079547  0.22501564    -0.72500
O437        O  0.93203995  0.59350773  0.17293532    -0.72600
O438        O  0.82639070  0.66824730  0.22032663    -0.72600
O439        O  0.76175617  0.62970613  0.19201862    -0.72600
O440        O  0.86867728  0.56227254  0.14073698    -0.72500
O441        O  0.81334544  0.53279256  0.19318586    -0.72500
O442        O  0.81661913  0.65702770  0.14010472    -0.72600
Ni443      Ni  0.88120167  0.63176079  0.19789352     1.25400
Ni444      Ni  0.81273111  0.59382352  0.16553121     1.25400
C445        C  0.85091461  0.69399180  0.14568944     0.89700
C446        C  0.84233061  0.53174716  0.21803373     0.89600
C447        C  0.91800603  0.56794686  0.14819009     0.89600
C448        C  0.77695635  0.66271954  0.21335405     0.89800
C449        C  0.95944587  0.56170116  0.09659699    -0.14500
C450        C  0.96004011  0.54817428  0.12714482    -0.29700
H451        H  0.92567476  0.58391229  0.08712516     0.14500
H452        H  0.99606624  0.53154389  0.13758028     0.15100
C453        C  0.81923625  0.75086744  0.10181785    -0.14500
C454        C  0.85414280  0.74121416  0.12512051    -0.29700
H455        H  0.78538984  0.72458686  0.09742606     0.14500
H456        H  0.88802516  0.76810574  0.12839441     0.15100
C457        C  0.98486182  0.87507882  0.11350894    -0.14500
C458        C  0.03771830  0.87797289  0.10845204    -0.29700
H459        H  0.96954048  0.86946403  0.13722973     0.14500
H460        H  0.05287951  0.88682156  0.08503549     0.15100
C461        C  0.15591574  0.70427873  0.10294719    -0.14500
C462        C  0.15039808  0.65159882  0.10847969    -0.29700
H463        H  0.15845610  0.71905332  0.07893137     0.14500
H464        H  0.15114036  0.63666948  0.13250479     0.15100
C465        C  0.75238480  0.73898221  0.24670592    -0.14500
C466        C  0.73717417  0.69664403  0.22921913    -0.29700
H467        H  0.79454575  0.74728808  0.25049975     0.14500
H468        H  0.69504272  0.68802050  0.22558292     0.15100
C469        C  0.52478905  0.86186114  0.37607487    -0.14500
C470        C  0.53500123  0.89087195  0.35015499    -0.29700
H471        H  0.55189053  0.82968854  0.38279197     0.14500
H472        H  0.50609821  0.91990504  0.34156931     0.15100
C473        C  0.66025091  0.67224013  0.36713052    -0.14500
C474        C  0.62280178  0.69587974  0.34922356    -0.29700
H475        H  0.70196909  0.68424052  0.36591564     0.14500
H476        H  0.58227134  0.67992233  0.34930196     0.15100
C477        C  0.23390541  0.69123311  0.23749743    -0.14500
C478        C  0.24932910  0.73538100  0.22143698    -0.29700
H479        H  0.19200922  0.67965944  0.23809459     0.14500
H480        H  0.29115736  0.74718483  0.22088267     0.15100
C481        C  0.43771104  0.54914453  0.35581420    -0.14500
C482        C  0.49066900  0.54822898  0.35065488    -0.29700
H483        H  0.42201915  0.54223009  0.37933107     0.14500
H484        H  0.50620189  0.55165400  0.32683539     0.15100
C485        C  0.33190256  0.77878872  0.35358533    -0.14500
C486        C  0.32266409  0.72629085  0.35795493    -0.29700
H487        H  0.33534727  0.79478085  0.32988234     0.14500
H488        H  0.31591282  0.71111822  0.38160801     0.15100
C489        C  0.99555634  0.96800288  0.98175736    -0.14500
C490        C  0.95212736  0.98128951  0.99894319    -0.29700
H491        H  0.00645197  0.92614759  0.97848518     0.14500
H492        H  0.94081814  0.02306328  0.00205126     0.15100
C493        C  0.95615599  0.08860523  0.87450149    -0.14500
C494        C  0.95979639  0.07017637  0.84483868    -0.29700
H495        H  0.92164400  0.11233894  0.88152051     0.14500
H496        H  0.99646413  0.05124138  0.83674216     0.15100
C497        C  0.00869584  0.45048004  0.98895218    -0.14500
C498        C  0.96575185  0.46795318  0.97276829    -0.29700
H499        H  0.01700340  0.40775754  0.99057424     0.14500
H500        H  0.95683626  0.51058340  0.97151907     0.15100
C501        C  0.81570837  0.25822050  0.86243880    -0.14500
C502        C  0.84408740  0.25570802  0.83561126    -0.29700
H503        H  0.79085669  0.22463943  0.86969190     0.14500
H504        H  0.87221166  0.28774535  0.83012540     0.15100
C505        C  0.04460501  0.37446996  0.86189742    -0.14500
C506        C  0.99210982  0.37266771  0.85573880    -0.29700
H507        H  0.05816875  0.37967340  0.88600526     0.14500
H508        H  0.97798935  0.37033024  0.83160480     0.15100
C509        C  0.14997054  0.18963966  0.88153741    -0.14500
C510        C  0.13987498  0.18872494  0.85060511    -0.29700
H511        H  0.16534632  0.22588045  0.89256230     0.14500
H512        H  0.11876749  0.15481186  0.84030499     0.15100
C513        C  0.51164520  0.94794346  0.49744295    -0.14500
C514        C  0.46764880  0.96622496  0.48253077    -0.29700
H515        H  0.52162388  0.90550288  0.49705687     0.14500
H516        H  0.45855337  0.00888198  0.48254220     0.15100
C517        C  0.24354744  0.19841672  0.73322443    -0.14500
C518        C  0.26082190  0.24215112  0.74883229    -0.29700
H519        H  0.20105483  0.18938311  0.73226770     0.14500
H520        H  0.30323917  0.25120153  0.75031075     0.15100
C521        C  0.48772149  0.04341412  0.61589046    -0.14500
C522        C  0.43531091  0.05054975  0.61140206    -0.29700
H523        H  0.50380388  0.04143377  0.63961570     0.14500
H524        H  0.41872236  0.04907535  0.58778523     0.15100
C525        C  0.51911051  0.43541430  0.46254646    -0.14500
C526        C  0.47404664  0.44794983  0.47842850    -0.29700
H527        H  0.53169861  0.39387368  0.46015201     0.14500
H528        H  0.46196629  0.48966005  0.48083073     0.15100
C529        C  0.32977038  0.23234382  0.58847331    -0.14500
C530        C  0.33823060  0.23952185  0.61931017    -0.29700
H531        H  0.31866549  0.19291017  0.57963746     0.14500
H532        H  0.35572429  0.27692919  0.62760031     0.15100
C533        C  0.74600713  0.19780350  0.72795930    -0.14500
C534        C  0.75758763  0.24572781  0.71480635    -0.29700
H535        H  0.70497678  0.18339932  0.72842562     0.14500
H536        H  0.79841498  0.26066622  0.71447312     0.15100
C537        C  0.52437918  0.37401887  0.61316810    -0.14500
C538        C  0.52049686  0.34220513  0.58768646    -0.29700
H539        H  0.49296438  0.40231701  0.61921116     0.14500
H540        H  0.55135661  0.31230346  0.58329718     0.15100
C541        C  0.65494395  0.21170061  0.60284575    -0.14500
C542        C  0.65902949  0.15889704  0.60840765    -0.29700
H543        H  0.64959398  0.22633248  0.57896420     0.14500
H544        H  0.66746555  0.14441709  0.63200495     0.15100
C545        C  0.76781504  0.07500182  0.49432965    -0.14500
C546        C  0.71717856  0.06741588  0.48463058    -0.29700
H547        H  0.77584982  0.08040097  0.51927213     0.14500
H548        H  0.70790691  0.06695648  0.45966040     0.15100
C549        C  0.12616327  0.98694261  0.22826226    -0.14500
C550        C  0.13077977  0.93437528  0.23510792    -0.29700
H551        H  0.12011047  0.99934309  0.20401486     0.14500
H552        H  0.13199117  0.92158503  0.25953949     0.15100
C553        C  0.02428969  0.07618237  0.37958586    -0.14500
C554        C  0.02697044  0.04686430  0.35302136    -0.29700
H555        H  0.05583286  0.10500081  0.38470628     0.14500
H556        H  0.99422943  0.02064882  0.34624372     0.15100
C557        C  0.22523519  0.37272095  0.47540899    -0.14500
C558        C  0.26319577  0.33465527  0.47452042    -0.29700
H559        H  0.23130172  0.40905122  0.48911837     0.14500
H560        H  0.25830690  0.30014190  0.45910679     0.15100
C561        C  0.14884276  0.21512122  0.36178630    -0.14500
C562        C  0.14417568  0.26816545  0.35731309    -0.29700
H563        H  0.15148268  0.19912040  0.38552367     0.14500
H564        H  0.14489558  0.28453820  0.33361558     0.15100
C565        C  0.84461502  0.43482053  0.22841868    -0.14500
C566        C  0.83982993  0.48520503  0.23926536    -0.29700
H567        H  0.85198515  0.42784476  0.20352822     0.14500
H568        H  0.83835735  0.49258069  0.26446944     0.15100
C569        C  0.95841098  0.37512022  0.34288125    -0.14500
C570        C  0.95684230  0.35958916  0.37307295    -0.29700
H571        H  0.99472480  0.39231494  0.33303387     0.14500
H572        H  0.92290095  0.33662370  0.38178919     0.15100
C573        C  0.84024084  0.19053553  0.37834951    -0.14500
C574        C  0.85434922  0.18542718  0.34798543    -0.29700
H575        H  0.82581230  0.22882293  0.38723757     0.14500
H576        H  0.87429814  0.14900719  0.34009659     0.15100
C577        C  0.20639606  0.06848055  0.99252217    -0.14500
C578        C  0.25705183  0.07210941  0.98200651    -0.29700
H579        H  0.19862146  0.06525832  0.01762447     0.14500
H580        H  0.26491727  0.08084351  0.95737539     0.15100
C581        C  0.66752959  0.95624798  0.24042806    -0.14500
C582        C  0.62690059  0.98314760  0.22703550    -0.29700
H583        H  0.70833238  0.97024137  0.23712897     0.14500
H584        H  0.58589180  0.97242790  0.23277660     0.15100
C585        C  0.75457694  0.18242296  0.22206188    -0.14500
C586        C  0.73966234  0.22561779  0.23898586    -0.29700
H587        H  0.79647759  0.17125517  0.22037401     0.14500
H588        H  0.69777670  0.23672048  0.24089209     0.15100
C589        C  0.54599073  0.05027410  0.10338069    -0.14500
C590        C  0.49321965  0.05178628  0.10878331    -0.29700
H591        H  0.56116854  0.04248371  0.07983604     0.14500
H592        H  0.47819906  0.05614503  0.13267132     0.15100
C593        C  0.31481750  0.45113102  0.22621591    -0.14500
C594        C  0.35502618  0.48485155  0.23353288    -0.29700
H595        H  0.27424391  0.46076439  0.23347123     0.14500
H596        H  0.39475703  0.47772106  0.22400718     0.15100
C597        C  0.23181647  0.23111752  0.22998553    -0.14500
C598        C  0.24730018  0.18650305  0.24546125    -0.29700
H599        H  0.18963197  0.24123772  0.22845362     0.14500
H600        H  0.28929542  0.17552393  0.24658121     0.15100
C601        C  0.31554642  0.16534837  0.10245889    -0.14500
C602        C  0.34931917  0.17998564  0.12542681    -0.29700
H603        H  0.27886804  0.18738330  0.09800451     0.14500
H604        H  0.38616629  0.15749952  0.12885378     0.15100
C605        C  0.75854263  0.35195121  0.98557773    -0.14500
C606        C  0.72633277  0.39360228  0.99244498    -0.29700
H607        H  0.75297841  0.31391453  0.99766360     0.14500
H608        H  0.73482229  0.43289634  0.98252789     0.15100
C609        C  0.66853631  0.22482770  0.10420587    -0.14500
C610        C  0.66858970  0.27719897  0.11162445    -0.29700
H611        H  0.66612471  0.21232051  0.07973535     0.14500
H612        H  0.67399361  0.28965607  0.13593450     0.15100
C613        C  0.48731078  0.38191866  0.11899753    -0.14500
C614        C  0.43538666  0.37458604  0.11249214    -0.29700
H615        H  0.50061810  0.38371039  0.14331434     0.14500
H616        H  0.42156216  0.37627187  0.08827629     0.15100
C617        C  0.70565731  0.85710020  0.98734514    -0.14500
C618        C  0.75805269  0.85655408  0.98013383    -0.29700
H619        H  0.69303333  0.85452598  0.01178287     0.14500
H620        H  0.77053223  0.85413842  0.95566208     0.15100
C621        C  0.46238034  0.95567775  0.99028681    -0.14500
C622        C  0.50569517  0.97230152  0.97398916    -0.29700
H623        H  0.45190154  0.91336542  0.99117069     0.14500
H624        H  0.51630524  0.01459614  0.97327761     0.15100
C625        C  0.30885965  0.95390294  0.74296250    -0.14500
C626        C  0.35092848  0.98265025  0.73288185    -0.29700
H627        H  0.26849030  0.96791111  0.73829465     0.14500
H628        H  0.39099588  0.97124048  0.74017695     0.15100
C629        C  0.42713965  0.87890539  0.85860224    -0.14500
C630        C  0.48002216  0.88154957  0.85359455    -0.29700
H631        H  0.41161875  0.88149381  0.88246598     0.14500
H632        H  0.49573075  0.88193038  0.82973530     0.15100
C633        C  0.26085114  0.58288698  0.98966768    -0.14500
C634        C  0.22806327  0.54055722  0.99328784    -0.29700
H635        H  0.25147091  0.62046979  0.00147597     0.14500
H636        H  0.23940466  0.50159161  0.98390720     0.15100
C637        C  0.47629688  0.47825323  0.98873408    -0.14500
C638        C  0.51802148  0.49464467  0.00633751    -0.29700
H639        H  0.46794020  0.43568324  0.98607548     0.14500
H640        H  0.52655843  0.53715555  0.00907792     0.15100
C641        C  0.34343227  0.68668787  0.84675097    -0.14500
C642        C  0.32538860  0.68519880  0.87644514    -0.29700
H643        H  0.37013968  0.65536742  0.83827944     0.14500
H644        H  0.30346343  0.71911119  0.88609870     0.15100
C645        C  0.62654876  0.49241794  0.72863084    -0.14500
C646        C  0.62703376  0.43969135  0.73556862    -0.29700
H647        H  0.62357632  0.50535408  0.70427928     0.14500
H648        H  0.62520165  0.42690066  0.75999404     0.15100
C649        C  0.53025607  0.54910869  0.85444178    -0.14500
C650        C  0.52092191  0.58451308  0.87776526    -0.29700
H651        H  0.50479335  0.51429453  0.85093119     0.14500
H652        H  0.54697224  0.61931013  0.88012047     0.15100
C653        C  0.65312413  0.71410971  0.86480467    -0.14500
C654        C  0.65567135  0.76718881  0.86027008    -0.29700
H655        H  0.64728788  0.69788532  0.88830069     0.14500
H656        H  0.66441594  0.78312918  0.83701751     0.15100
C657        C  0.76606489  0.56083496  0.48029575    -0.14500
C658        C  0.71341470  0.55913292  0.48682263    -0.29700
H659        H  0.77934691  0.56505563  0.45605821     0.14500
H660        H  0.69998746  0.56015303  0.51115336     0.15100
C661        C  0.96626472  0.44528169  0.49952295    -0.14500
C662        C  0.00976841  0.46232104  0.48354617    -0.29700
H663        H  0.95597171  0.40291316  0.50020212     0.14500
H664        H  0.01926803  0.50487182  0.48258511     0.15100
C665        C  0.15791183  0.46402920  0.72067141    -0.14500
C666        C  0.16309748  0.46192198  0.75206454    -0.29700
H667        H  0.15630044  0.42716766  0.70700065     0.14500
H668        H  0.16966337  0.49862923  0.76536749     0.15100
C669        C  0.24749790  0.68820367  0.72589318    -0.14500
C670        C  0.22830714  0.73099766  0.74163183    -0.29700
H671        H  0.29032231  0.68145923  0.72417523     0.14500
H672        H  0.18545553  0.73762322  0.74334435     0.15100
C673        C  0.04270103  0.54746020  0.60966912    -0.14500
C674        C  0.99008598  0.54461552  0.61551272    -0.29700
H675        H  0.05711421  0.54542290  0.58554379     0.14500
H676        H  0.97536586  0.54360113  0.63958036     0.15100
C677        C  0.82457476  0.95372419  0.72511676    -0.14500
C678        C  0.86568082  0.98749810  0.73018438    -0.29700
H679        H  0.78471163  0.96474851  0.73301794     0.14500
H680        H  0.90441530  0.97883191  0.71971142     0.15100
C681        C  0.73598830  0.73503328  0.73215344    -0.14500
C682        C  0.75103548  0.69016017  0.74758408    -0.29700
H683        H  0.69391458  0.74573494  0.73085635     0.14500
H684        H  0.79289525  0.67857153  0.74843449     0.15100
C685        C  0.84850861  0.67787853  0.62711916    -0.14500
C686        C  0.81496695  0.66380890  0.60383370    -0.29700
H687        H  0.88414583  0.65383414  0.63125567     0.14500
H688        H  0.77967177  0.68748412  0.59850140     0.15100
C689        C  0.24899332  0.89101727  0.47186507    -0.14500
C690        C  0.21855537  0.85024119  0.48223494    -0.29700
H691        H  0.23802634  0.93205798  0.47771147     0.14500
H692        H  0.22673088  0.80959924  0.47424990     0.15100
C693        C  0.01823178  0.97872267  0.50129366    -0.14500
C694        C  0.97322129  0.96562093  0.48570512    -0.29700
H695        H  0.03032959  0.02045915  0.50350188     0.14500
H696        H  0.96131544  0.92386744  0.48328605     0.15100
C697        C  0.16626556  0.75548951  0.60213791    -0.14500
C698        C  0.13083454  0.73783533  0.62343517    -0.29700
H699        H  0.20528481  0.73700500  0.59918143     0.14500
H700        H  0.09261364  0.75835054  0.62594917     0.15100
C701        C  0.99241410  0.87538729  0.61623538    -0.14500
C702        C  0.93965347  0.87028372  0.61113267    -0.29700
H703        H  0.00772609  0.87735349  0.64012688     0.14500
H704        H  0.92440106  0.87154715  0.58720488     0.15100
loop_ 
_geom_bond_atom_site_label_1 
_geom_bond_atom_site_label_2 
_geom_bond_distance 
_geom_bond_site_symmetry_2 
_ccdc_geom_bond_type 
O1           Ni9   1.921       .  S
O1           C11   1.282       .  A
O2           Ni9   1.926       .  S
O2           C12   1.282       .  A
O3           Ni9   1.897       .  S
O3           C13   1.277       .  A
O4           Ni9   1.900       .  S
O4           C14   1.278       .  A
O5          Ni10   1.920       .  S
O5           C14   1.282       .  A
O6          Ni10   1.920       .  S
O6           C13   1.280       .  A
O7          Ni10   1.922       .  S
O7           C12   1.282       .  A
O8          Ni10   1.921       .  S
O8           C11   1.280       .  A
Ni9         Ni10   2.391       .  S
C11         C701   1.473   1_455  S
C12         C690   1.479       .  S
C13         C697   1.457       .  S
C14         C693   1.468       .  S
O15         Ni23   1.919       .  S
O15          C25   1.282       .  A
O16         Ni23   1.931       .  S
O16          C26   1.284       .  A
O17         Ni23   1.918       .  S
O17          C27   1.281       .  A
O18         Ni23   1.913       .  S
O18          C28   1.281       .  A
O19         Ni24   1.924       .  S
O19          C28   1.282       .  A
O20         Ni24   1.914       .  S
O20          C27   1.281       .  A
O21         Ni24   1.923       .  S
O21          C26   1.281       .  A
O22         Ni24   1.914       .  S
O22          C25   1.280       .  A
Ni23        Ni24   2.390       .  S
C25         C685   1.472       .  S
C26         C677   1.480       .  S
C27         C681   1.471       .  S
C28         C702   1.476       .  S
O29         Ni37   1.909       .  S
O29          C39   1.279       .  A
O30         Ni37   1.918       .  S
O30          C40   1.281       .  A
O31         Ni37   1.903       .  S
O31          C41   1.279       .  A
O32         Ni37   1.910       .  S
O32          C42   1.281       .  A
O33         Ni38   1.918       .  S
O33          C42   1.281       .  A
O34         Ni38   1.919       .  S
O34          C41   1.281       .  A
O35         Ni38   1.922       .  S
O35          C40   1.281       .  A
O36         Ni38   1.911       .  S
O36          C39   1.280       .  A
Ni37        Ni38   2.391       .  S
C39         C698   1.462       .  S
C40         C665   1.471       .  S
C41         C669   1.469       .  S
C42         C673   1.472       .  S
O43         Ni51   1.922       .  S
O43          C53   1.283       .  A
O44         Ni51   1.928       .  S
O44          C54   1.283       .  A
O45         Ni51   1.902       .  S
O45          C55   1.277       .  A
O46         Ni51   1.889       .  S
O46          C56   1.276       .  A
O47         Ni52   1.937       .  S
O47          C56   1.285       .  A
O48         Ni52   1.927       .  S
O48          C55   1.282       .  A
O49         Ni52   1.921       .  S
O49          C54   1.281       .  A
O50         Ni52   1.911       .  S
O50          C53   1.278       .  A
Ni51        Ni52   2.392       .  S
C53         C674   1.467       .  S
C54         C657   1.479       .  S
C55         C686   1.463       .  S
C56         C661   1.476       .  S
O57         Ni65   1.921       .  S
O57          C67   1.283       .  A
O58         Ni65   1.930       .  S
O58          C68   1.283       .  A
O59         Ni65   1.905       .  S
O59          C69   1.277       .  A
O60         Ni65   1.895       .  S
O60          C70   1.277       .  A
O61         Ni66   1.938       .  S
O61          C70   1.286       .  A
O62         Ni66   1.927       .  S
O62          C69   1.283       .  A
O63         Ni66   1.917       .  S
O63          C68   1.280       .  A
O64         Ni66   1.906       .  S
O64          C67   1.276       .  A
Ni65        Ni66   2.392       .  S
C67         C653   1.461       .  S
C68         C645   1.478       .  S
C69         C649   1.467       .  S
C70         C682   1.479       .  S
O71         Ni79   1.922       .  S
O71          C81   1.283       .  A
O72         Ni79   1.923       .  S
O72          C82   1.282       .  A
O73         Ni79   1.909       .  S
O73          C83   1.279       .  A
O74         Ni79   1.902       .  S
O74          C84   1.276       .  A
O75         Ni80   1.922       .  S
O75          C84   1.282       .  A
O76         Ni80   1.917       .  S
O76          C83   1.281       .  A
O77         Ni80   1.923       .  S
O77          C82   1.282       .  A
O78         Ni80   1.916       .  S
O78          C81   1.280       .  A
Ni79        Ni80   2.391       .  S
C81         C650   1.474       .  S
C82         C633   1.480       .  S
C83         C637   1.470       .  S
C84         C642   1.460       .  S
O85         Ni93   1.916       .  S
O85          C95   1.280       .  A
O86         Ni93   1.924       .  S
O86          C96   1.283       .  A
O87         Ni93   1.910       .  S
O87          C97   1.281       .  A
O88         Ni93   1.909       .  S
O88          C98   1.280       .  A
O89         Ni94   1.913       .  S
O89          C98   1.280       .  A
O90         Ni94   1.921       .  S
O90          C97   1.281       .  A
O91         Ni94   1.921       .  S
O91          C96   1.280       .  A
O92         Ni94   1.910       .  S
O92          C95   1.281       .  A
Ni93        Ni94   2.392       .  S
C95         C641   1.469       .  S
C96         C625   1.477       .  S
C97         C629   1.474       .  S
C98         C670   1.467       .  S
O99        Ni107   1.925       .  S
O99         C109   1.284       .  A
O100       Ni107   1.927       .  S
O100        C110   1.282       .  A
O101       Ni107   1.894       .  S
O101        C111   1.276       .  A
O102       Ni107   1.903       .  S
O102        C112   1.280       .  A
O103       Ni108   1.918       .  S
O103        C112   1.280       .  A
O104       Ni108   1.927       .  S
O104        C111   1.284       .  A
O105       Ni108   1.921       .  S
O105        C110   1.281       .  A
O106       Ni108   1.912       .  S
O106        C109   1.278       .  A
Ni107      Ni108   2.391       .  S
C109        C630   1.469       .  S
C110        C617   1.477       .  S
C111        C622   1.469       .  S
C112        C654   1.468       .  S
O113       Ni121   1.928       .  S
O113        C123   1.284       .  A
O114       Ni121   1.931       .  S
O114        C124   1.283       .  A
O115       Ni121   1.902       .  S
O115        C125   1.279       .  A
O116       Ni121   1.902       .  S
O116        C126   1.278       .  A
O117       Ni122   1.926       .  S
O117        C126   1.283       .  A
O118       Ni122   1.927       .  S
O118        C125   1.283       .  A
O119       Ni122   1.919       .  S
O119        C124   1.280       .  A
O120       Ni122   1.908       .  S
O120        C123   1.277       .  A
Ni121      Ni122   2.391       .  S
C123        C613   1.469       .  S
C124        C606   1.477   1_554  S
C125        C610   1.473       .  S
C126        C638   1.473       .  S
O127       Ni135   1.916       .  S
O127        C137   1.281       .  A
O128       Ni135   1.929       .  S
O128        C138   1.283       .  A
O129       Ni135   1.917       .  S
O129        C139   1.281       .  A
O130       Ni135   1.910       .  S
O130        C140   1.281       .  A
O131       Ni136   1.922       .  S
O131        C140   1.281       .  A
O132       Ni136   1.911       .  S
O132        C139   1.280       .  A
O133       Ni136   1.922       .  S
O133        C138   1.281       .  A
O134       Ni136   1.911       .  S
O134        C137   1.280       .  A
Ni135      Ni136   2.391       .  S
C137        C602   1.468       .  S
C138        C593   1.478       .  S
C139        C597   1.468       .  S
C140        C614   1.474       .  S
O141       Ni149   1.922       .  S
O141        C151   1.283       .  A
O142       Ni149   1.924       .  S
O142        C152   1.282       .  A
O143       Ni149   1.899       .  S
O143        C153   1.278       .  A
O144       Ni149   1.901       .  S
O144        C154   1.279       .  A
O145       Ni150   1.925       .  S
O145        C154   1.282       .  A
O146       Ni150   1.919       .  S
O146        C153   1.282       .  A
O147       Ni150   1.924       .  S
O147        C152   1.282       .  A
O148       Ni150   1.914       .  S
O148        C151   1.278       .  A
Ni149      Ni150   2.391       .  S
C151        C609   1.467       .  S
C152        C582   1.478   1_545  S
C153        C585   1.466       .  S
C154        C589   1.471       .  S
O155       Ni163   1.924       .  S
O155        C165   1.283       .  A
O156       Ni163   1.929       .  S
O156        C166   1.283       .  A
O157       Ni163   1.901       .  S
O157        C167   1.277       .  A
O158       Ni163   1.892       .  S
O158        C168   1.276   1_545  A
O159       Ni164   1.929   1_565  S
O159        C168   1.284       .  A
O160       Ni164   1.921       .  S
O160        C167   1.281       .  A
O161       Ni164   1.912       .  S
O161        C166   1.279       .  A
O162       Ni164   1.907       .  S
O162        C165   1.277       .  A
Ni163      Ni164   2.393       .  S
C165        C590   1.464       .  S
C166        C578   1.475   1_554  S
C167        C601   1.459       .  S
C168        C621   1.469   1_554  S
O169       Ni177   1.919       .  S
O169        C179   1.281       .  A
O170       Ni177   1.920       .  S
O170        C180   1.281       .  A
O171       Ni177   1.907       .  S
O171        C181   1.278       .  A
O172       Ni177   1.898       .  S
O172        C182   1.278       .  A
O173       Ni178   1.920       .  S
O173        C182   1.281       .  A
O174       Ni178   1.911       .  S
O174        C181   1.280       .  A
O175       Ni178   1.920       .  S
O175        C180   1.282       .  A
O176       Ni178   1.913       .  S
O176        C179   1.280       .  A
Ni177      Ni178   2.392       .  S
C179        C574   1.470       .  S
C180        C565   1.473       .  S
C181        C569   1.458       .  S
C182        C586   1.466       .  S
O183       Ni191   1.917       .  S
O183        C193   1.281       .  A
O184       Ni191   1.925       .  S
O184        C194   1.282       .  A
O185       Ni191   1.910       .  S
O185        C195   1.279       .  A
O186       Ni191   1.908       .  S
O186        C196   1.280       .  A
O187       Ni192   1.922       .  S
O187        C196   1.281       .  A
O188       Ni192   1.916       .  S
O188        C195   1.281       .  A
O189       Ni192   1.914       .  S
O189        C194   1.278       .  A
O190       Ni192   1.904       .  S
O190        C193   1.279       .  A
Ni191      Ni192   2.393       .  S
C193        C570   1.464   1_455  S
C194        C557   1.469       .  S
C195        C662   1.467       .  S
C196        C562   1.474       .  S
O197       Ni205   1.928       .  S
O197        C207   1.284       .  A
O198       Ni205   1.932       .  S
O198        C208   1.284       .  A
O199       Ni205   1.905       .  S
O199        C209   1.277       .  A
O200       Ni205   1.893       .  S
O200        C210   1.277       .  A
O201       Ni206   1.934       .  S
O201        C210   1.285       .  A
O202       Ni206   1.925       .  S
O202        C209   1.282       .  A
O203       Ni206   1.922       .  S
O203        C208   1.281       .  A
O204       Ni206   1.908       .  S
O204        C207   1.277       .  A
Ni205      Ni206   2.391       .  S
C207        C561   1.468       .  S
C208        C549   1.483   1_545  S
C209        C554   1.464       .  S
C210        C598   1.477       .  S
O211       Ni219   1.923       .  S
O211        C221   1.283       .  A
O212       Ni219   1.925       .  S
O212        C222   1.282       .  A
O213       Ni219   1.902       .  S
O213        C223   1.278       .  A
O214       Ni219   1.912       .  S
O214        C224   1.278       .  A
O215       Ni220   1.917       .  S
O215        C224   1.282       .  A
O216       Ni220   1.920   1_565  S
O216        C223   1.282   1_565  A
O217       Ni220   1.923       .  S
O217        C222   1.281       .  A
O218       Ni220   1.913       .  S
O218        C221   1.280       .  A
Ni219      Ni220   2.390       .  S
C221        C553   1.474   1_655  S
C222        C545   1.478       .  S
C223        C694   1.468   1_545  S
C224        C573   1.467       .  S
O225       Ni233   1.923       .  S
O225        C235   1.283       .  A
O226       Ni233   1.929       .  S
O226        C236   1.283       .  A
O227       Ni233   1.906       .  S
O227        C237   1.277       .  A
O228       Ni233   1.893       .  S
O228        C238   1.277       .  A
O229       Ni234   1.933       .  S
O229        C238   1.284       .  A
O230       Ni234   1.923       .  S
O230        C237   1.282       .  A
O231       Ni234   1.920       .  S
O231        C236   1.281       .  A
O232       Ni234   1.907       .  S
O232        C235   1.277       .  A
Ni233      Ni234   2.392       .  S
C235        C541   1.463       .  S
C236        C646   1.478       .  S
C237        C537   1.463       .  S
C238        C534   1.475       .  S
O239       Ni247   1.921       .  S
O239        C249   1.282       .  A
O240       Ni247   1.923       .  S
O240        C250   1.282       .  A
O241       Ni247   1.913       .  S
O241        C251   1.279       .  A
O242       Ni247   1.909       .  S
O242        C252   1.278       .  A
O243       Ni248   1.917       .  S
O243        C252   1.282       .  A
O244       Ni248   1.915       .  S
O244        C251   1.281       .  A
O245       Ni248   1.916       .  S
O245        C250   1.281       .  A
O246       Ni248   1.912       .  S
O246        C249   1.279       .  A
Ni247      Ni248   2.391       .  S
C249        C538   1.472       .  S
C250        C558   1.478       .  S
C251        C526   1.469       .  S
C252        C529   1.465       .  S
O253       Ni261   1.910       .  S
O253        C263   1.279       .  A
O254       Ni261   1.917       .  S
O254        C264   1.280       .  A
O255       Ni261   1.909       .  S
O255        C265   1.281       .  A
O256       Ni261   1.911       .  S
O256        C266   1.280       .  A
O257       Ni262   1.912       .  S
O257        C266   1.280       .  A
O258       Ni262   1.915       .  S
O258        C265   1.279       .  A
O259       Ni262   1.928       .  S
O259        C264   1.283       .  A
O260       Ni262   1.918       .  S
O260        C263   1.281       .  A
Ni261      Ni262   2.392       .  S
C263        C530   1.466       .  S
C264        C626   1.477   1_545  S
C265        C522   1.467       .  S
C266        C517   1.467       .  S
O267       Ni275   1.922       .  S
O267        C277   1.284       .  A
O268       Ni275   1.927       .  S
O268        C278   1.282       .  A
O269       Ni275   1.889       .  S
O269        C279   1.276   1_545  A
O270       Ni275   1.897       .  S
O270        C280   1.278       .  A
O271       Ni276   1.925       .  S
O271        C280   1.282       .  A
O272       Ni276   1.937   1_565  S
O272        C279   1.285       .  A
O273       Ni276   1.920       .  S
O273        C278   1.281       .  A
O274       Ni276   1.906       .  S
O274        C277   1.276       .  A
Ni275      Ni276   2.391       .  S
C277        C521   1.463       .  S
C278        C546   1.477       .  S
C279        C513   1.476       .  S
C280        C542   1.470       .  S
O281       Ni289   1.911       .  S
O281        C291   1.279       .  A
O282       Ni289   1.918       .  S
O282        C292   1.281       .  A
O283       Ni289   1.901       .  S
O283        C293   1.279       .  A
O284       Ni289   1.913       .  S
O284        C294   1.282       .  A
O285       Ni290   1.917       .  S
O285        C294   1.280       .  A
O286       Ni290   1.922       .  S
O286        C293   1.281       .  A
O287       Ni290   1.921       .  S
O287        C292   1.281       .  A
O288       Ni290   1.909       .  S
O288        C291   1.280       .  A
Ni289      Ni290   2.392       .  S
C291        C510   1.463       .  S
C292        C666   1.474       .  S
C293        C518   1.471       .  S
C294        C505   1.473       .  S
O295       Ni303   1.927       .  S
O295        C305   1.284       .  A
O296       Ni303   1.929       .  S
O296        C306   1.283       .  A
O297       Ni303   1.900       .  S
O297        C307   1.276       .  A
O298       Ni303   1.900       .  S
O298        C308   1.278       .  A
O299       Ni304   1.929       .  S
O299        C308   1.284       .  A
O300       Ni304   1.927       .  S
O300        C307   1.283       .  A
O301       Ni304   1.920       .  S
O301        C306   1.282       .  A
O302       Ni304   1.909       .  S
O302        C305   1.277       .  A
Ni303      Ni304   2.391       .  S
C305        C506   1.467       .  S
C306        C605   1.483       .  S
C307        C501   1.462       .  S
C308        C498   1.475       .  S
O309       Ni317   1.919       .  S
O309        C319   1.282       .  A
O310       Ni317   1.927       .  S
O310        C320   1.283       .  A
O311       Ni317   1.911       .  S
O311        C321   1.279       .  A
O312       Ni317   1.910       .  S
O312        C322   1.278       .  A
O313       Ni318   1.923       .  S
O313        C322   1.282       .  A
O314       Ni318   1.915       .  S
O314        C321   1.281       .  A
O315       Ni318   1.926       .  S
O315        C320   1.283       .  A
O316       Ni318   1.915       .  S
O316        C319   1.280       .  A
Ni317      Ni318   2.391       .  S
C319        C502   1.472       .  S
C320        C678   1.484   1_545  S
C321        C533   1.468       .  S
C322        C494   1.467       .  S
O323       Ni331   1.925       .  S
O323        C333   1.283       .  A
O324       Ni331   1.924       .  S
O324        C334   1.282       .  A
O325       Ni331   1.907       .  S
O325        C335   1.278       .  A
O326       Ni331   1.902       .  S
O326        C336   1.277       .  A
O327       Ni332   1.919   1_565  S
O327        C336   1.282   1_565  A
O328       Ni332   1.911       .  S
O328        C335   1.280       .  A
O329       Ni332   1.919       .  S
O329        C334   1.280       .  A
O330       Ni332   1.912       .  S
O330        C333   1.280       .  A
Ni331      Ni332   2.392       .  S
C333        C493   1.475   1_455  S
C334        C577   1.472       .  S
C335        C509   1.459       .  S
C336        C489   1.466   1_445  S
O337       Ni345   1.931       .  S
O337        C347   1.285       .  A
O338       Ni345   1.933       .  S
O338        C348   1.284       .  A
O339       Ni345   1.905       .  S
O339        C349   1.278       .  A
O340       Ni345   1.904       .  S
O340        C350   1.279       .  A
O341       Ni346   1.927       .  S
O341        C350   1.283       .  A
O342       Ni346   1.926       .  S
O342        C349   1.283       .  A
O343       Ni346   1.919       .  S
O343        C348   1.281       .  A
O344       Ni346   1.909       .  S
O344        C347   1.277       .  A
Ni345      Ni346   2.390       .  S
C347        C486   1.472       .  S
C348        C594   1.484       .  S
C349        C477   1.473       .  S
C350        C481   1.472       .  S
O351       Ni359   1.919       .  S
O351        C361   1.282       .  A
O352       Ni359   1.929       .  S
O352        C362   1.283       .  A
O353       Ni359   1.906       .  S
O353        C363   1.278       .  A
O354       Ni359   1.893       .  S
O354        C364   1.277       .  A
O355       Ni360   1.935       .  S
O355        C364   1.285       .  A
O356       Ni360   1.926       .  S
O356        C363   1.282       .  A
O357       Ni360   1.921       .  S
O357        C362   1.281       .  A
O358       Ni360   1.916       .  S
O358        C361   1.279       .  A
Ni359      Ni360   2.391       .  S
C361        C482   1.468       .  S
C362        C658   1.479       .  S
C363        C473   1.468       .  S
C364        C525   1.476       .  S
O365       Ni373   1.918       .  S
O365        C375   1.281       .  A
O366       Ni373   1.928       .  S
O366        C376   1.283       .  A
O367       Ni373   1.911       .  S
O367        C377   1.281       .  A
O368       Ni373   1.913       .  S
O368        C378   1.280       .  A
O369       Ni374   1.913       .  S
O369        C378   1.281       .  A
O370       Ni374   1.924       .  S
O370        C377   1.282       .  A
O371       Ni374   1.920       .  S
O371        C376   1.280       .  A
O372       Ni374   1.908       .  S
O372        C375   1.280       .  A
Ni373      Ni374   2.391       .  S
C375        C469   1.469       .  S
C376        C689   1.478       .  S
C377        C485   1.477       .  S
C378        C514   1.467       .  S
O379       Ni387   1.918       .  S
O379        C389   1.281       .  A
O380       Ni387   1.922       .  S
O380        C390   1.282       .  A
O381       Ni387   1.909       .  S
O381        C391   1.280       .  A
O382       Ni387   1.900       .  S
O382        C392   1.276       .  A
O383       Ni388   1.921       .  S
O383        C392   1.282       .  A
O384       Ni388   1.909       .  S
O384        C391   1.279       .  A
O385       Ni388   1.926       .  S
O385        C390   1.282       .  A
O386       Ni388   1.919       .  S
O386        C389   1.281       .  A
Ni387      Ni388   2.392       .  S
C389        C474   1.469       .  S
C390        C581   1.478       .  S
C391        C465   1.464       .  S
C392        C470   1.458       .  S
O393       Ni401   1.923       .  S
O393        C403   1.283       .  A
O394       Ni401   1.928       .  S
O394        C404   1.282       .  A
O395       Ni401   1.908       .  S
O395        C405   1.280       .  A
O396       Ni401   1.898       .  S
O396        C406   1.277       .  A
O397       Ni402   1.933       .  S
O397        C406   1.285       .  A
O398       Ni402   1.923       .  S
O398        C405   1.282       .  A
O399       Ni402   1.925       .  S
O399        C404   1.282       .  A
O400       Ni402   1.912       .  S
O400        C403   1.278       .  A
Ni401      Ni402   2.390       .  S
C403        C461   1.468       .  S
C404        C550   1.480       .  S
C405        C458   1.474       .  S
C406        C478   1.475       .  S
O407       Ni415   1.925       .  S
O407        C417   1.284       .  A
O408       Ni415   1.928       .  S
O408        C418   1.283       .  A
O409       Ni415   1.889       .  S
O409        C419   1.276       .  A
O410       Ni415   1.901       .  S
O410        C420   1.277       .  A
O411       Ni416   1.921       .  S
O411        C420   1.281       .  A
O412       Ni416   1.931       .  S
O412        C419   1.284       .  A
O413       Ni416   1.919       .  S
O413        C418   1.281       .  A
O414       Ni416   1.911       .  S
O414        C417   1.278       .  A
Ni415      Ni416   2.392       .  S
C417        C457   1.468       .  S
C418        C618   1.478   1_554  S
C419        C490   1.471   1_554  S
C420        C453   1.460       .  S
O421       Ni429   1.918       .  S
O421        C431   1.281       .  A
O422       Ni429   1.926       .  S
O422        C432   1.283       .  A
O423       Ni429   1.912       .  S
O423        C433   1.280       .  A
O424       Ni429   1.909       .  S
O424        C434   1.280       .  A
O425       Ni430   1.921       .  S
O425        C434   1.281       .  A
O426       Ni430   1.917       .  S
O426        C433   1.281       .  A
O427       Ni430   1.921       .  S
O427        C432   1.280       .  A
O428       Ni430   1.912       .  S
O428        C431   1.280       .  A
Ni429      Ni430   2.392       .  S
C431        C449   1.469   1_455  S
C432        C634   1.476   1_554  S
C433        C497   1.470   1_554  S
C434        C462   1.472       .  S
O435       Ni443   1.916       .  S
O435        C445   1.281       .  A
O436       Ni443   1.916       .  S
O436        C446   1.280       .  A
O437       Ni443   1.908       .  S
O437        C447   1.278       .  A
O438       Ni443   1.899       .  S
O438        C448   1.279       .  A
O439       Ni444   1.919       .  S
O439        C448   1.281       .  A
O440       Ni444   1.918       .  S
O440        C447   1.281       .  A
O441       Ni444   1.922       .  S
O441        C446   1.282       .  A
O442       Ni444   1.912       .  S
O442        C445   1.280       .  A
Ni443      Ni444   2.391       .  S
C445        C454   1.468       .  S
C446        C566   1.471       .  S
C447        C450   1.464       .  S
C448        C466   1.468       .  S
C449        C450   1.341       .  D
C449        H451   1.087       .  S
C450        H452   1.087       .  S
C453        C454   1.343       .  D
C453        H455   1.086       .  S
C454        H456   1.089       .  S
C457        C458   1.340   1_655  D
C457        H459   1.087       .  S
C458        H460   1.087       .  S
C461        C462   1.340       .  D
C461        H463   1.087       .  S
C462        H464   1.087       .  S
C465        C466   1.344       .  D
C465        H467   1.086       .  S
C466        H468   1.086       .  S
C469        C470   1.342       .  D
C469        H471   1.088       .  S
C470        H472   1.086       .  S
C473        C474   1.344       .  D
C473        H475   1.086       .  S
C474        H476   1.088       .  S
C477        C478   1.350       .  D
C477        H479   1.086       .  S
C478        H480   1.086       .  S
C481        C482   1.342       .  D
C481        H483   1.087       .  S
C482        H484   1.087       .  S
C485        C486   1.341       .  D
C485        H487   1.087       .  S
C486        H488   1.087       .  S
C489        C490   1.349       .  D
C489        H491   1.086   1_655  S
C490        H492   1.086   1_566  S
C493        C494   1.344       .  D
C493        H495   1.087       .  S
C494        H496   1.086       .  S
C497        C498   1.348   1_455  D
C497        H499   1.086       .  S
C498        H500   1.086       .  S
C501        C502   1.343       .  D
C501        H503   1.086       .  S
C502        H504   1.088       .  S
C505        C506   1.339   1_455  D
C505        H507   1.087       .  S
C506        H508   1.086       .  S
C509        C510   1.339       .  D
C509        H511   1.087       .  S
C510        H512   1.088       .  S
C513        C514   1.350       .  D
C513        H515   1.086       .  S
C514        H516   1.087   1_565  S
C517        C518   1.346       .  D
C517        H519   1.087       .  S
C518        H520   1.086       .  S
C521        C522   1.336       .  D
C521        H523   1.087       .  S
C522        H524   1.087       .  S
C525        C526   1.349       .  D
C525        H527   1.086       .  S
C526        H528   1.087       .  S
C529        C530   1.339       .  D
C529        H531   1.087       .  S
C530        H532   1.087       .  S
C533        C534   1.349       .  D
C533        H535   1.087       .  S
C534        H536   1.086       .  S
C537        C538   1.345       .  D
C537        H539   1.086       .  S
C538        H540   1.088       .  S
C541        C542   1.340       .  D
C541        H543   1.087       .  S
C542        H544   1.087       .  S
C545        C546   1.345       .  D
C545        H547   1.087       .  S
C546        H548   1.086       .  S
C549        C550   1.346       .  D
C549        H551   1.087       .  S
C550        H552   1.086       .  S
C553        C554   1.345       .  D
C553        H555   1.088       .  S
C554        H556   1.086   1_455  S
C557        C558   1.342       .  D
C557        H559   1.086       .  S
C558        H560   1.087       .  S
C561        C562   1.340       .  D
C561        H563   1.087       .  S
C562        H564   1.087       .  S
C565        C566   1.342       .  D
C565        H567   1.087       .  S
C566        H568   1.087       .  S
C569        C570   1.341       .  D
C569        H571   1.087       .  S
C570        H572   1.088       .  S
C573        C574   1.343       .  D
C573        H575   1.087       .  S
C574        H576   1.088       .  S
C577        C578   1.345       .  D
C577        H579   1.087   1_556  S
C578        H580   1.087       .  S
C581        C582   1.344       .  D
C581        H583   1.087       .  S
C582        H584   1.087       .  S
C585        C586   1.346       .  D
C585        H587   1.086       .  S
C586        H588   1.086       .  S
C589        C590   1.339       .  D
C589        H591   1.087       .  S
C590        H592   1.087       .  S
C593        C594   1.346       .  D
C593        H595   1.087       .  S
C594        H596   1.087       .  S
C597        C598   1.349       .  D
C597        H599   1.086       .  S
C598        H600   1.086       .  S
C601        C602   1.341       .  D
C601        H603   1.086       .  S
C602        H604   1.088       .  S
C605        C606   1.345       .  D
C605        H607   1.087       .  S
C606        H608   1.086       .  S
C609        C610   1.342       .  D
C609        H611   1.087       .  S
C610        H612   1.087       .  S
C613        C614   1.340       .  D
C613        H615   1.087       .  S
C614        H616   1.087       .  S
C617        C618   1.345       .  D
C617        H619   1.087   1_556  S
C618        H620   1.087       .  S
C621        C622   1.349       .  D
C621        H623   1.086       .  S
C622        H624   1.086   1_565  S
C625        C626   1.342       .  D
C625        H627   1.087       .  S
C626        H628   1.087       .  S
C629        C630   1.340       .  D
C629        H631   1.087       .  S
C630        H632   1.087       .  S
C633        C634   1.344       .  D
C633        H635   1.087   1_556  S
C634        H636   1.086       .  S
C637        C638   1.347   1_556  D
C637        H639   1.086       .  S
C638        H640   1.086       .  S
C641        C642   1.340       .  D
C641        H643   1.088       .  S
C642        H644   1.087       .  S
C645        C646   1.346       .  D
C645        H647   1.086       .  S
C646        H648   1.087       .  S
C649        C650   1.346       .  D
C649        H651   1.086       .  S
C650        H652   1.088       .  S
C653        C654   1.337       .  D
C653        H655   1.087       .  S
C654        H656   1.087       .  S
C657        C658   1.345       .  D
C657        H659   1.087       .  S
C658        H660   1.087       .  S
C661        C662   1.350   1_655  D
C661        H663   1.086       .  S
C662        H664   1.087       .  S
C665        C666   1.341       .  D
C665        H667   1.087       .  S
C666        H668   1.087       .  S
C669        C670   1.346       .  D
C669        H671   1.086       .  S
C670        H672   1.086       .  S
C673        C674   1.340   1_455  D
C673        H675   1.087       .  S
C674        H676   1.086       .  S
C677        C678   1.345       .  D
C677        H679   1.086       .  S
C678        H680   1.087       .  S
C681        C682   1.350       .  D
C681        H683   1.087       .  S
C682        H684   1.086       .  S
C685        C686   1.344       .  D
C685        H687   1.088       .  S
C686        H688   1.086       .  S
C689        C690   1.343       .  D
C689        H691   1.087       .  S
C690        H692   1.087       .  S
C693        C694   1.346   1_455  D
C693        H695   1.086   1_565  S
C694        H696   1.086       .  S
C697        C698   1.340       .  D
C697        H699   1.086       .  S
C698        H700   1.089       .  S
C701        C702   1.343       .  D
C701        H703   1.086   1_655  S
C702        H704   1.087       .  S
