geometry optimzed in LAMMPS
_audit_creation_date              2020-12-01 
_audit_creation_method            'lammps2cif' 
_symmetry_space_group_name_H-M    'P1' 
_symmetry_Int_Tables_number       1 
_symmetry_cell_setting            triclinic 
loop_ 
_symmetry_equiv_pos_as_xyz 
  x,y,z 
_cell_length_a                    28.42774252 
_cell_length_b                    29.155586330948868 
_cell_length_c                    52.90129278929902 
_cell_angle_alpha                 89.6671762219584 
_cell_angle_beta                  90.0434971496493 
_cell_angle_gamma                 90.28207323090174 
loop_ 
_atom_site_label 
_atom_site_type_symbol 
_atom_site_fract_x 
_atom_site_fract_y 
_atom_site_fract_z 
_atom_site_charge 
C1          C  0.80655022  0.63347572  0.32340467     0.03700
C2          C  0.82568954  0.67501546  0.31499864    -0.12500
C3          C  0.86347561  0.69531910  0.32771025     0.01200
C4          C  0.88226791  0.67356230  0.34912425    -0.11000
C5          C  0.86538665  0.63035437  0.35689253     0.03700
C6          C  0.82737259  0.61062634  0.34389731    -0.10400
H7          H  0.81206250  0.69092387  0.29796011     0.09300
H8          H  0.91068716  0.68980462  0.35942931     0.06800
H9          H  0.81461886  0.57692811  0.34924735     0.06600
C10         C  0.78680038  0.77834829  0.10922688     0.03700
C11         C  0.75677622  0.80318603  0.09331510    -0.12500
C12         C  0.71486036  0.78348769  0.08417973     0.01200
C13         C  0.70216137  0.73908774  0.09255145    -0.11000
C14         C  0.73124980  0.71466553  0.10939118     0.03700
C15         C  0.77490258  0.73352925  0.11623903    -0.10400
H16         H  0.76524220  0.83862593  0.08901172     0.09300
H17         H  0.66875659  0.72435303  0.08690543     0.06800
H18         H  0.79784071  0.71490748  0.12900248     0.06600
C19         C  0.36546557  0.71999481  0.33121342     0.03700
C20         C  0.39202721  0.74542388  0.34848581    -0.12500
C21         C  0.37426746  0.78642033  0.35845387     0.01200
C22         C  0.32970796  0.80196740  0.35053560    -0.11000
C23         C  0.30328752  0.77696475  0.33283274     0.03700
C24         C  0.32089891  0.73522398  0.32394528    -0.10400
H25         H  0.42740601  0.73451602  0.35306364     0.09300
H26         H  0.31650532  0.83444493  0.35732673     0.06800
H27         H  0.30098633  0.71565414  0.31020534     0.06600
C28         C  0.86828122  0.22393697  0.11975742     0.03700
C29         C  0.82712894  0.24374251  0.12902538    -0.12500
C30         C  0.81533001  0.28870177  0.12274417     0.01200
C31         C  0.84424359  0.31375864  0.10613302    -0.11000
C32         C  0.88327057  0.29310158  0.09440851     0.03700
C33         C  0.89546542  0.24820616  0.10189990    -0.10400
H34         H  0.80483170  0.22453195  0.14194714     0.09300
H35         H  0.83634375  0.34950167  0.10268892     0.06800
H36         H  0.92669297  0.23242479  0.09436247     0.06600
C37         C  0.14540728  0.86673799  0.28542571     0.43000
N38         N  0.12235062  0.91618378  0.25789263     0.01900
C39         C  0.91944949  0.04365891  0.25248845    -0.06000
H40         H  0.89134480  0.86929485  0.24593294     0.07400
C41         C  0.98074936  0.87704206  0.16126776    -0.06300
Co42       Co  0.03450138  0.96392486  0.27203439     0.74200
N43         N  0.95248564  0.91187526  0.25241673    -0.25500
Co44       Co  0.95426445  0.95976179  0.22289159     0.74100
C45         C  0.93520210  0.85809343  0.16911692     0.43100
N46         N  0.09567224  0.90856164  0.18343641     0.01500
N47         N  0.95814131  0.90831118  0.19612285     0.01600
N48         N  0.97019025  0.04410480  0.28542592    -0.46400
H49         H  0.08024327  0.88017239  0.31052608     0.07400
N50         N  0.98393441  0.91300906  0.27081034     0.01900
N51         N  0.95860317  0.00819349  0.19368323     0.01600
C52         C  0.94527033  0.06359783  0.16814646     0.43200
N53         N  0.12650912  0.90966909  0.20210456    -0.25000
C54         C  0.08695977  0.05191084  0.28614883    -0.05900
N55         N  0.15648535  0.88745357  0.26339721    -0.46100
N56         N  0.92888442  0.04200497  0.18902892    -0.46300
C57         C  0.12735326  0.07711842  0.27670760     0.43000
N58         N  0.98121977  0.01226888  0.26871773     0.01900
N59         N  0.12709900  0.00967909  0.19883025    -0.25000
N60         N  0.08879268  0.91629227  0.27502869    -0.25500
N61         N  0.09751581  0.00760581  0.17969280     0.01500
H62         H  0.19060845  0.04807934  0.20536575     0.07400
H63         H  0.01064305  0.04745496  0.14424540     0.07400
N64         N  0.95160986  0.01094366  0.24957832    -0.25500
N65         N  0.99182407  0.90803174  0.17903713    -0.25100
N66         N  0.11886719  0.01628316  0.25476512     0.01900
C67         C  0.93768461  0.85855410  0.28125581     0.43300
C68         C  0.15434628  0.87271938  0.20018989    -0.06400
N69         N  0.99323860  0.00683087  0.17711447    -0.25100
H70         H  0.99967652  0.87220782  0.14377494     0.07400
N71         N  0.97662708  0.88142261  0.28837874    -0.46400
H72         H  0.18318734  0.86416123  0.21266209     0.07400
C73         C  0.14835439  0.05852177  0.16866658     0.43100
C74         C  0.10016312  0.88608618  0.29341377    -0.05900
Co75       Co  0.12485023  0.96308389  0.22845339     0.73800
N76         N  0.10077788  0.87303317  0.16845655    -0.46100
C77         C  0.93189170  0.06574686  0.27622468     0.43400
N78         N  0.14593134  0.05319472  0.25729028    -0.46100
Co79       Co  0.04475494  0.95773003  0.17933498     0.73900
C80         C  0.98768482  0.04033204  0.16009782    -0.06400
C81         C  0.92150298  0.87825517  0.25738940    -0.06000
N82         N  0.08430962  0.01517611  0.27140079    -0.25500
N83         N  0.92362984  0.87955313  0.19075095    -0.46300
H84         H  0.88908253  0.04877632  0.24049153     0.07400
C85         C  0.15999117  0.04124746  0.19380733    -0.06400
Cl86       Cl  0.03959015  0.96101173  0.22568563    -0.49400
C87         C  0.13673121  0.84863823  0.17785753     0.43100
H88         H  0.06300906  0.06017357  0.30131032     0.07400
N89         N  0.10952842  0.03561730  0.16089027    -0.46100
C90         C  0.26322860  0.63123293  0.12041498     0.03700
C91         C  0.24518665  0.66955016  0.13276749    -0.12500
C92         C  0.20304502  0.68953075  0.12511755     0.01200
C93         C  0.17737036  0.66985895  0.10523376    -0.11000
C94         C  0.19347252  0.63001084  0.09315725     0.03700
C95         C  0.23641387  0.61072762  0.10117351    -0.10400
H96         H  0.26393516  0.68401074  0.14867041     0.09300
H97         H  0.14451774  0.68531721  0.09945891     0.06800
H98         H  0.24880301  0.57940503  0.09271404     0.06600
C99         C  0.77918701  0.14866269  0.32871496     0.03700
C100        C  0.75819941  0.19120574  0.32397709    -0.12500
C101        C  0.71320936  0.20065062  0.33324177     0.01200
C102        C  0.69109849  0.16916372  0.34950194    -0.11000
C103        C  0.71252467  0.12705765  0.35532673     0.03700
C104        C  0.75601490  0.11671358  0.34434974    -0.10400
H105        H  0.77558621  0.21600893  0.31181730     0.09300
H106        H  0.65672797  0.17709388  0.35711077     0.06800
H107        H  0.77097599  0.08297760  0.34712928     0.06600
C108        C  0.18941200  0.30536119  0.35262875     0.03700
C109        C  0.17244148  0.26466407  0.34159287    -0.12500
C110        C  0.19974250  0.24046009  0.32407750     0.01200
C111        C  0.24329728  0.25827626  0.31673214    -0.11000
C112        C  0.25941236  0.30030618  0.32599080     0.03700
C113        C  0.23309549  0.32328029  0.34442273    -0.10400
H114        H  0.13749390  0.25227235  0.34616548     0.09300
H115        H  0.26420930  0.24018106  0.30288956     0.06800
H116        H  0.24587581  0.35567846  0.35167440     0.06600
C117        C  0.37030777  0.13316761  0.08844428     0.03700
C118        C  0.32842278  0.11618134  0.09938844    -0.12500
C119        C  0.29723100  0.14545475  0.11179120     0.01200
C120        C  0.30789886  0.19216645  0.11323793    -0.11000
C121        C  0.35179309  0.20911541  0.10521750     0.03700
C122        C  0.38163812  0.18002186  0.09155347    -0.10400
H123        H  0.32054962  0.07980730  0.09897969     0.09300
H124        H  0.28379404  0.21463062  0.12302034     0.06800
H125        H  0.41431447  0.19355831  0.08427380     0.06600
C126        C  0.65393709  0.54824960  0.27013597     0.43000
N127        N  0.59193786  0.53808714  0.24816558     0.01900
C128        C  0.44217273  0.35280925  0.24879338    -0.06000
H129        H  0.61519045  0.30617832  0.24128587     0.07400
C130        C  0.62813542  0.40904031  0.15903297    -0.06300
Co131      Co  0.53779183  0.45621787  0.26546959     0.74200
N132        N  0.58386309  0.37239691  0.24643489    -0.25500
Co133      Co  0.53497907  0.37639486  0.21752440     0.74100
C134        C  0.65200133  0.36895052  0.16891884     0.43100
N135        N  0.59078769  0.51496901  0.17369728     0.01500
N136        N  0.58934039  0.37950474  0.19046875     0.01600
N137        N  0.44885406  0.40505934  0.28012889    -0.46400
H138        H  0.63836842  0.48523508  0.29523153     0.07400
N139        N  0.58554371  0.40240759  0.26490677     0.01900
N140        N  0.48625494  0.37995552  0.18830451     0.01600
C141        C  0.43775503  0.35834186  0.15958853     0.43200
N142        N  0.59056648  0.54422377  0.19252438    -0.25000
C143        C  0.45968076  0.52257497  0.28449783    -0.05900
N144        N  0.62851373  0.56584412  0.25091794    -0.46100
N145        N  0.45630585  0.34703207  0.18225867    -0.46300
C146        C  0.44070680  0.56684519  0.27592765     0.43000
N147        N  0.48380860  0.40851493  0.26376053     0.01900
N148        N  0.48855931  0.54383840  0.19223403    -0.25000
N149        N  0.59156796  0.50422414  0.26486710    -0.25500
N150        N  0.48847243  0.51302665  0.17402269     0.01500
H151        H  0.44268733  0.60061815  0.20055262     0.07400
H152        H  0.45688325  0.41972311  0.13397388     0.07400
N153        N  0.48130405  0.37826179  0.24525562    -0.25500
N154        N  0.59021563  0.41309092  0.17357350    -0.25100
N155        N  0.48967896  0.54141049  0.24840592     0.01900
C156        C  0.63166774  0.34830347  0.27680476     0.43300
C157        C  0.62275058  0.57668797  0.18828790    -0.06400
N158        N  0.48916946  0.41199905  0.17071499    -0.25100
H159        H  0.63809242  0.43196912  0.14378728     0.07400
N160        N  0.61294660  0.38881648  0.28381400    -0.46400
H161        H  0.62761188  0.60692565  0.19975812     0.07400
C162        C  0.42849066  0.55408897  0.16627470     0.43100
C163        C  0.62951944  0.50776719  0.27964636    -0.05900
Co164      Co  0.54008305  0.54276487  0.22040201     0.73800
N165        N  0.62119239  0.52688498  0.15571271    -0.46100
C166        C  0.42083898  0.37096219  0.27196300     0.43400
N167        N  0.46138482  0.57577858  0.25348730    -0.46100
Co168      Co  0.53969010  0.46327736  0.17246767     0.73900
C169        C  0.45984527  0.40132805  0.15171019    -0.06400
C170        C  0.61231246  0.33750876  0.25201886    -0.06000
N171        N  0.48975474  0.50987018  0.26627135    -0.25500
N172        N  0.62615489  0.35196347  0.18835167    -0.46300
H173        H  0.43065807  0.32475141  0.23699920     0.07400
C174        C  0.45199537  0.57194844  0.18871096    -0.06400
Cl175      Cl  0.53804768  0.45958212  0.21897061    -0.49400
C176        C  0.64329505  0.56530748  0.16391170     0.43100
H177        H  0.45505813  0.50454468  0.30220440     0.07400
N178        N  0.45303647  0.51780242  0.15808232    -0.46100
N179        N  0.53500383  0.97082485  0.51003696    -0.36100
N180        N  0.59596842  0.00984334  0.47137325    -0.56600
N181        N  0.54248243  0.96078153  0.43241534    -0.36100
N182        N  0.48647486  0.91708202  0.47150656    -0.56600
C183        C  0.56808465  0.99085393  0.52475206     0.27500
C184        C  0.51063714  0.94100116  0.52474137     0.27500
C185        C  0.58069386  0.97505554  0.41935750     0.27500
C186        C  0.52332647  0.92531266  0.41955553     0.27500
C187        C  0.60858408  0.03643182  0.49116679     0.36100
C188        C  0.61203168  0.03127259  0.45033567     0.36100
C189        C  0.45838356  0.90836677  0.49152287     0.36100
C190        C  0.46247538  0.90322852  0.45087192     0.36100
C191        C  0.56380453  0.97430336  0.54930536    -0.21400
C192        C  0.52800134  0.94247517  0.54921648    -0.21400
C193        C  0.58589523  0.94851637  0.39788197    -0.21300
C194        C  0.54963706  0.91699969  0.39802591    -0.21300
C195        C  0.63363459  0.07439347  0.48267814    -0.22400
C196        C  0.63513987  0.07153629  0.45684290    -0.22400
C197        C  0.41641448  0.88875728  0.48363302    -0.22400
C198        C  0.41888210  0.88573199  0.45781242    -0.22400
C199        C  0.59991693  0.02561738  0.51687099    -0.17800
C200        C  0.47172948  0.91413545  0.51696364    -0.17800
C201        C  0.48144784  0.90194190  0.42624686    -0.17800
C202        C  0.60891427  0.01338924  0.42553856    -0.17800
H203        H  0.58379117  0.98433157  0.56577775     0.15200
H204        H  0.51562490  0.92326999  0.56548870     0.15200
H205        H  0.61279107  0.95183771  0.38350754     0.15200
H206        H  0.54314012  0.89119405  0.38380212     0.15200
H207        H  0.64927592  0.10147219  0.49381383     0.13400
H208        H  0.65182357  0.09623624  0.44437256     0.13400
H209        H  0.38732490  0.87735382  0.49531196     0.13400
H210        H  0.39205150  0.87144179  0.44560803     0.13400
H211        H  0.52780375  0.97879810  0.49132402     0.26700
H212        H  0.52859540  0.97644807  0.44832878     0.26700
N213        N  0.03315142  0.46523521  0.01145524    -0.36100
N214        N  0.99728663  0.40274249  0.97252252    -0.56600
N215        N  0.03380457  0.46374817  0.93329273    -0.36100
N216        N  0.07029678  0.52565481  0.97224342    -0.56600
C217        C  0.01949543  0.42963875  0.02626252     0.27500
C218        C  0.05840974  0.49439891  0.02602451     0.27500
C219        C  0.00819264  0.43509194  0.91859584     0.27500
C220        C  0.05167700  0.49720341  0.91825943     0.27500
C221        C  0.98446508  0.37827391  0.99313898     0.36100
C222        C  0.98065147  0.37992276  0.95221915     0.36100
C223        C  0.08248645  0.55096123  0.99252791     0.36100
C224        C  0.08335739  0.54994331  0.95161968     0.36100
C225        C  0.03489616  0.43703518  0.05078963    -0.21400
C226        C  0.06003644  0.47736072  0.05055859    -0.21400
C227        C  0.01028625  0.45042962  0.89374057    -0.21300
C228        C  0.03839548  0.48896496  0.89345664    -0.21300
C229        C  0.96048952  0.33895923  0.98587877    -0.22400
C230        C  0.95818950  0.33993363  0.96000913    -0.22400
C231        C  0.10233507  0.59219720  0.98471766    -0.22400
C232        C  0.10315785  0.59143410  0.95885084    -0.22400
C233        C  0.99271101  0.39107396  0.01853930    -0.17800
C234        C  0.08013582  0.53592366  0.01797094    -0.17800
C235        C  0.07934524  0.53508293  0.92627296    -0.17800
C236        C  0.98286415  0.39558719  0.92681791    -0.17800
H237        H  0.02923834  0.41547594  0.06721157     0.15200
H238        H  0.07745161  0.49229322  0.06675362     0.15200
H239        H  0.99350622  0.43544533  0.87736692     0.15200
H240        H  0.04702353  0.50897302  0.87681491     0.15200
H241        H  0.94592860  0.31239416  0.99796761     0.13400
H242        H  0.94129839  0.31434746  0.94831295     0.13400
H243        H  0.11578220  0.61961245  0.99643365     0.13400
H244        H  0.11692756  0.61837233  0.94674735     0.13400
H245        H  0.02435996  0.46992139  0.99269398     0.26700
H246        H  0.03969646  0.46039117  0.95242046     0.26700
N247        N  0.02750077  0.46693685  0.43682619    -0.36100
N248        N  0.97774583  0.51494622  0.47718971    -0.56600
N249        N  0.03059817  0.46455040  0.51499004    -0.36100
N250        N  0.07523362  0.41166695  0.47441911    -0.56600
C251        C  0.99169725  0.48639829  0.42397728     0.27500
C252        C  0.04443387  0.43288326  0.42227476     0.27500
C253        C  0.99942037  0.48636386  0.53005368     0.27500
C254        C  0.05092116  0.43089607  0.52881486     0.27500
C255        C  0.96497323  0.54043709  0.45699326     0.36100
C256        C  0.96760222  0.54022460  0.49774285     0.36100
C257        C  0.09897233  0.39850074  0.45349299     0.36100
C258        C  0.09990973  0.39593098  0.49451914     0.36100
C259        C  0.98588274  0.46468597  0.40092115    -0.21400
C260        C  0.01922358  0.43072282  0.39987091    -0.21400
C261        C  0.00031105  0.46666465  0.55393418    -0.21300
C262        C  0.03319576  0.43206790  0.55325454    -0.21300
C263        C  0.94642825  0.58193804  0.46466495    -0.22400
C264        C  0.94815175  0.58184527  0.49052503    -0.22400
C265        C  0.13867159  0.37407260  0.46030780    -0.22400
C266        C  0.13884829  0.37170548  0.48614944    -0.22400
C267        C  0.96648399  0.52526105  0.43182800    -0.17800
C268        C  0.08349048  0.40532601  0.42830063    -0.17800
C269        C  0.08697879  0.40121400  0.52030564    -0.17800
C270        C  0.97178144  0.52471478  0.52296756    -0.17800
H271        H  0.96055477  0.47279608  0.38629600     0.15200
H272        H  0.02456453  0.40735061  0.38432410     0.15200
H273        H  0.98002494  0.47667447  0.57028368     0.15200
H274        H  0.04320103  0.41069486  0.56911953     0.15200
H275        H  0.93265087  0.60921095  0.45287455     0.13400
H276        H  0.93599801  0.60911169  0.50264973     0.13400
H277        H  0.16454648  0.35881015  0.44799354     0.13400
H278        H  0.16485482  0.35375631  0.49730807     0.13400
H279        H  0.04158416  0.47831814  0.45380854     0.26700
H280        H  0.03938935  0.47352601  0.49662374     0.26700
N281        N  0.54030980  0.96375727  0.93630272    -0.36100
N282        N  0.49574922  0.01688381  0.97599478    -0.56600
N283        N  0.53265973  0.95293378  0.01434902    -0.36100
N284        N  0.58183994  0.90353184  0.97448035    -0.56600
C285        C  0.52152864  0.99741062  0.92182560     0.27500
C286        C  0.56731447  0.93754512  0.92117278     0.27500
C287        C  0.51455876  0.98576857  0.02945900     0.27500
C288        C  0.56274584  0.92750136  0.02851933     0.27500
C289        C  0.47878262  0.04016035  0.95576756     0.36100
C290        C  0.47493818  0.03479503  0.99662549     0.36100
C291        C  0.59459416  0.88041014  0.95356436     0.36100
C292        C  0.59255855  0.87640257  0.99438419     0.36100
C293        C  0.53641572  0.99213445  0.89703905    -0.21400
C294        C  0.56574552  0.95481189  0.89669328    -0.21400
C295        C  0.53204377  0.98004878  0.05376661    -0.21300
C296        C  0.56300503  0.94390442  0.05305865    -0.21300
C297        C  0.44822755  0.07402736  0.96368665    -0.22400
C298        C  0.44592701  0.07079313  0.98945743    -0.22400
C299        C  0.61355484  0.83831423  0.96021718    -0.22400
C300        C  0.61219142  0.83573913  0.98605912    -0.22400
C301        C  0.48978746  0.03150768  0.93011709    -0.17800
C302        C  0.59179206  0.89741039  0.92855769    -0.17800
C303        C  0.58936999  0.88949024  0.02000759    -0.17800
C304        C  0.48232574  0.02036554  0.02198077    -0.17800
H305        H  0.52698977  0.01269562  0.88074118     0.15200
H306        H  0.58311166  0.94141960  0.88011713     0.15200
H307        H  0.52414605  0.00019430  0.07031494     0.15200
H308        H  0.58325873  0.93113657  0.06891039     0.15200
H309        H  0.42960695  0.09874226  0.95212794     0.13400
H310        H  0.42532560  0.09284047  0.00149222     0.13400
H311        H  0.62728043  0.81228084  0.94776088     0.13400
H312        H  0.62484196  0.80741488  0.99745948     0.13400
H313        H  0.53373931  0.95796519  0.95476315     0.26700
H314        H  0.52371108  0.94744713  0.99595770     0.26700
C315        C  0.69850378  0.73977596  0.81973460     0.03700
C316        C  0.67777604  0.75971959  0.84101136    -0.12500
C317        C  0.69267336  0.80291463  0.84963967     0.01200
C318        C  0.72980091  0.82534956  0.83699756    -0.11000
C319        C  0.75252725  0.80472725  0.81649328     0.03700
C320        C  0.73567669  0.76254781  0.80752278    -0.10400
H321        H  0.64952786  0.74167114  0.85062405     0.09300
H322        H  0.74093356  0.85914456  0.84292579     0.06800
H323        H  0.75071908  0.74796164  0.79058184     0.06600
C324        C  0.79486483  0.29212195  0.82963201     0.03700
C325        C  0.82483615  0.31507368  0.84645755    -0.12500
C326        C  0.86743099  0.29519395  0.85453653     0.01200
C327        C  0.87988227  0.25206337  0.84465047    -0.11000
C328        C  0.85162418  0.23036907  0.82636015     0.03700
C329        C  0.80791249  0.24939161  0.82018412    -0.10400
H330        H  0.81505801  0.34893293  0.85283597     0.09300
H331        H  0.91215667  0.23573443  0.85051742     0.06800
H332        H  0.78510283  0.23222829  0.80678345     0.06600
C333        C  0.37935319  0.12484094  0.85268567     0.03700
C334        C  0.38997095  0.17030117  0.84504991    -0.12500
C335        C  0.36519022  0.19143844  0.82519841     0.01200
C336        C  0.32770325  0.16829106  0.81393959    -0.11000
C337        C  0.31638925  0.12330316  0.82099744     0.03700
C338        C  0.34334955  0.10118464  0.83960300    -0.10400
H339        H  0.41779090  0.18950652  0.85417243     0.09300
H340        H  0.30857080  0.18463583  0.79864744     0.06800
H341        H  0.33687613  0.06516466  0.84314550     0.06600
C342        C  0.20456418  0.71503544  0.83219424     0.03700
C343        C  0.24835970  0.69895807  0.82442008    -0.12500
C344        C  0.26415357  0.65546333  0.83200131     0.01200
C345        C  0.23551722  0.62859542  0.84802053    -0.11000
C346        C  0.19214938  0.64532933  0.85713098     0.03700
C347        C  0.17782866  0.68942639  0.84947992    -0.10400
H348        H  0.26858144  0.71901466  0.81091439     0.09300
H349        H  0.24597207  0.59376933  0.85229846     0.06800
H350        H  0.14518338  0.70375018  0.85616622     0.06600
C351        C  0.21037736  0.28867649  0.58216981     0.03700
C352        C  0.25065478  0.30585291  0.59449375    -0.12500
C353        C  0.28333327  0.27633145  0.60575041     0.01200
C354        C  0.27423451  0.22921453  0.60617173    -0.11000
C355        C  0.23051146  0.21182761  0.59824304     0.03700
C356        C  0.20015165  0.24124586  0.58478704    -0.10400
H357        H  0.25597934  0.34240510  0.59638186     0.09300
H358        H  0.29915220  0.20671475  0.61548427     0.06800
H359        H  0.16750456  0.22758805  0.57765490     0.06600
C360        C  0.69206175  0.19484729  0.62633278     0.03700
C361        C  0.66810408  0.16719242  0.60891650    -0.12500
C362        C  0.69210518  0.13344396  0.59510508     0.01200
C363        C  0.73971993  0.12511407  0.60108664    -0.11000
C364        C  0.76330523  0.15113546  0.61951616     0.03700
C365        C  0.73967874  0.18733659  0.63101019    -0.10400
H366        H  0.63080788  0.17243464  0.60623051     0.09300
H367        H  0.75834173  0.09782218  0.59178130     0.06800
H368        H  0.75847551  0.20970049  0.64385876     0.06600
C369        C  0.41754798  0.56751504  0.77971000     0.43000
N370        N  0.44062177  0.51653378  0.75343086     0.01900
C371        C  0.64422974  0.38715951  0.75393208    -0.06000
H372        H  0.66814102  0.56273390  0.73906397     0.07400
C373        C  0.58661561  0.54845271  0.65816555    -0.06300
Co374      Co  0.52773971  0.46778506  0.76992846     0.74200
N375        N  0.61034899  0.51772042  0.74893575    -0.25500
Co376      Co  0.60937951  0.46690707  0.72128003     0.74100
C377        C  0.63219139  0.56723363  0.66661923     0.43100
N378        N  0.46996079  0.51819032  0.67898395     0.01500
N379        N  0.60777016  0.51639705  0.69321872     0.01600
N380        N  0.59516606  0.39060837  0.78733347    -0.46400
H381        H  0.48080258  0.55354495  0.80605531     0.07400
N382        N  0.57851633  0.51888220  0.76711293     0.01900
N383        N  0.60524583  0.41660151  0.69325538     0.01600
C384        C  0.61833766  0.36096701  0.66807252     0.43200
N385        N  0.43843222  0.51874656  0.69729837    -0.25000
C386        C  0.47357016  0.37988043  0.78507870    -0.05900
N387        N  0.40665150  0.54601847  0.75802164    -0.46100
N388        N  0.63445007  0.38216090  0.68910059    -0.46300
C389        C  0.43215707  0.35574765  0.77600740     0.43000
N390        N  0.58156221  0.41863329  0.76883156     0.01900
N391        N  0.43698443  0.41831807  0.69743360    -0.25000
N392        N  0.47355056  0.51639627  0.77097879    -0.25500
N393        N  0.46774792  0.41873217  0.67883519     0.01500
H394        H  0.37465954  0.37821302  0.70475394     0.07400
H395        H  0.55300865  0.37774113  0.64408173     0.07400
N396        N  0.61071653  0.41796089  0.74951072    -0.25500
N397        N  0.57461632  0.51714508  0.67585152    -0.25100
N398        N  0.44211686  0.41625706  0.75353796     0.01900
C399        C  0.62042792  0.57874855  0.77293827     0.43300
C400        C  0.41104694  0.55570213  0.69386204    -0.06400
N401        N  0.57110993  0.41835467  0.67640411    -0.25100
H402        H  0.56702822  0.55485252  0.64102253     0.07400
N403        N  0.58319102  0.55500611  0.78194117    -0.46400
H404        H  0.38215732  0.56576029  0.70584128     0.07400
C405        C  0.42002518  0.36412791  0.66962379     0.43100
C406        C  0.46192019  0.54747494  0.78862839    -0.05900
Co407      Co  0.43833161  0.46748531  0.72544559     0.73800
N408        N  0.46575298  0.55261674  0.66287149    -0.46100
C409        C  0.63430838  0.36894414  0.77906472     0.43400
N410        N  0.41393478  0.38017953  0.75655790    -0.46100
Co411      Co  0.52056342  0.46826084  0.67705882     0.73900
C412        C  0.57622374  0.38459481  0.65981029    -0.06400
C413        C  0.63899765  0.55403043  0.75134019    -0.06000
N414        N  0.47697683  0.41671527  0.77008708    -0.25500
N415        N  0.64246065  0.54528886  0.68839110    -0.46300
H416        H  0.67513671  0.38232588  0.74234709     0.07400
C417        C  0.40553708  0.38487637  0.69337159    -0.06400
Cl418      Cl  0.52399702  0.46766234  0.72345717    -0.49400
C419        C  0.42923241  0.57768841  0.67084873     0.43100
H420        H  0.49731189  0.37112705  0.80031741     0.07400
N421        N  0.45833891  0.38747192  0.66150560    -0.46100
C422        C  0.78959296  0.65152260  0.61491225     0.03700
C423        C  0.81511220  0.62323645  0.59866094    -0.12500
C424        C  0.85646298  0.63924143  0.58694810     0.01200
C425        C  0.87161765  0.68451211  0.59163470    -0.11000
C426        C  0.84684921  0.71304797  0.60838667     0.03700
C427        C  0.80580049  0.69596868  0.61991718    -0.10400
H428        H  0.80376668  0.58804452  0.59613369     0.09300
H429        H  0.90342563  0.69719931  0.58269440     0.06800
H430        H  0.78730892  0.71640755  0.63369837     0.06600
C431        C  0.30274673  0.79673187  0.61984978     0.03700
C432        C  0.32426918  0.75881641  0.63101511    -0.12500
C433        C  0.37064013  0.74752284  0.62531754     0.01200
C434        C  0.39499819  0.77304792  0.60690265    -0.11000
C435        C  0.37277497  0.80943737  0.59397400     0.03700
C436        C  0.32664246  0.82146685  0.60095792    -0.10400
H437        H  0.30479896  0.73834964  0.64464877     0.09300
H438        H  0.43129035  0.76471655  0.60291881     0.06800
H439        H  0.30967485  0.85058695  0.59212878     0.06600
C440        C  0.90761967  0.89465275  0.76598948     0.43000
N441        N  0.97112904  0.89955089  0.74453587     0.01900
C442        C  0.13760042  0.07064328  0.74247968    -0.06000
H443        H  0.96340454  0.12955070  0.73320085     0.07400
C444        C  0.95183650  0.03269824  0.65151001    -0.06300
Co445      Co  0.03281711  0.97662724  0.76092170     0.74200
N446        N  0.99421250  0.06345206  0.74038773    -0.25500
Co447      Co  0.04366156  0.05471152  0.71181072     0.74100
C448        C  0.93400130  0.07643481  0.66022256     0.43100
N449        N  0.97567528  0.92025521  0.66975464     0.01500
N450        N  0.99082540  0.05637748  0.68418683     0.01600
N451        N  0.12746385  0.01928458  0.77425354    -0.46400
H452        H  0.92824598  0.95627620  0.79080282     0.07400
N453        N  0.99005398  0.03389483  0.75917735     0.01900
N454        N  0.09255837  0.04601210  0.68297954     0.01600
C455        C  0.14236573  0.06382677  0.65390374     0.43200
N456        N  0.97278266  0.89151581  0.68898902    -0.25000
C457        C  0.10660720  0.90655273  0.78077389    -0.05900
N458        N  0.93219356  0.87506521  0.74719405    -0.46100
N459        N  0.12483436  0.07661553  0.67647408    -0.46300
C460        C  0.12221889  0.86099132  0.77310656     0.43000
N461        N  0.09133806  0.01921669  0.75849275     0.01900
N462        N  0.07425737  0.88290956  0.68956655    -0.25000
N463        N  0.97426222  0.93338172  0.76094781    -0.25500
N464        N  0.07689630  0.91236208  0.67053399     0.01500
H465        H  0.11469302  0.82300086  0.69945620     0.07400
H466        H  0.11786729  0.00382309  0.62891705     0.07400
N467        N  0.09618624  0.04884233  0.73967255    -0.25500
N468        N  0.98665545  0.02288420  0.66756033    -0.25100
N469        N  0.07292125  0.88693054  0.74578817     0.01900
C470        C  0.94321777  0.08837611  0.76897447     0.43300
C471        C  0.93980630  0.86003759  0.68410461    -0.06400
N472        N  0.08699046  0.01390299  0.66576929    -0.25100
H473        H  0.94055182  0.01176205  0.63579873     0.07400
N474        N  0.96050457  0.04773626  0.77690136    -0.46400
H475        H  0.93330117  0.82953530  0.69533116     0.07400
C476        C  0.13241936  0.86535046  0.66371587     0.43100
C477        C  0.93553768  0.93305914  0.77544049    -0.05900
Co478      Co  0.02277883  0.88940155  0.71734608     0.73800
N479        N  0.94748498  0.90816633  0.65088645    -0.46100
C480        C  0.15855461  0.05040073  0.76532009     0.43400
N481        N  0.09929322  0.85113953  0.75142558    -0.46100
Co482      Co  0.03142669  0.96725445  0.66795088     0.73900
C483        C  0.11686809  0.02230403  0.64657390    -0.06400
C484        C  0.96565741  0.09890951  0.74474174    -0.06000
N485        N  0.07604210  0.91956497  0.76277501    -0.25500
N486        N  0.95945388  0.08918891  0.68058251    -0.46300
H487        H  0.15102802  0.09732878  0.73015871     0.07400
C488        C  0.10818979  0.85165358  0.68688967    -0.06400
Cl489      Cl  0.03267562  0.97206406  0.71446973    -0.49400
C490        C  0.92282383  0.87092615  0.65883338     0.43100
H491        H  0.11400128  0.92527253  0.79790754     0.07400
N492        N  0.11117384  0.90306487  0.65457332    -0.46100
C493        C  0.25393994  0.81630484  0.65681980    -0.11700
C494        C  0.25769246  0.81275677  0.63040985     0.05300
C495        C  0.21929416  0.82554484  0.61509463    -0.07000
C496        C  0.17862702  0.84281201  0.62637849    -0.07800
C497        C  0.17512860  0.84605447  0.65275271    -0.02300
C498        C  0.21302633  0.83241824  0.66807458     0.04500
N499        N  0.21178060  0.83757468  0.69492954     0.67000
H500        H  0.28352983  0.80762492  0.66883730     0.15900
H501        H  0.14921046  0.85274269  0.61453358     0.15600
N502        N  0.22017171  0.81912859  0.58833000     0.74700
O503        O  0.21068490  0.80247878  0.70899339    -0.38700
O504        O  0.21936867  0.87644186  0.70452641    -0.38700
O505        O  0.21451877  0.77940835  0.57944087    -0.39400
O506        O  0.21807183  0.85345402  0.57374085    -0.39400
C507        C  0.91512587  0.75948990  0.62324283    -0.11700
C508        C  0.86721192  0.75776783  0.61674607     0.05300
C509        C  0.83897155  0.79676127  0.62150290    -0.07000
C510        C  0.85818031  0.83467757  0.63423299    -0.07800
C511        C  0.90542062  0.83505183  0.64164861    -0.02300
C512        C  0.93432802  0.79766553  0.63541919     0.04500
N513        N  0.98286323  0.79705746  0.64253048     0.67000
H514        H  0.93745978  0.73006617  0.62009923     0.15900
H515        H  0.83587789  0.86348354  0.63883929     0.15600
N516        N  0.79084338  0.79834965  0.61360071     0.74700
O517        O  0.99572520  0.77409659  0.66158973    -0.38700
O518        O  0.01342811  0.81340155  0.62768112    -0.38700
O519        O  0.75890176  0.80669419  0.62946219    -0.39400
O520        O  0.78088575  0.79712783  0.59036403    -0.39400
C521        C  0.39792758  0.65652762  0.67439707    -0.11700
C522        C  0.41553805  0.62154700  0.65914849     0.05300
C523        C  0.42247306  0.62988787  0.63308230    -0.07000
C524        C  0.41034208  0.67231219  0.62261913    -0.07800
C525        C  0.39163979  0.70697136  0.63775261    -0.02300
C526        C  0.38682970  0.69935986  0.66405949     0.04500
N527        N  0.37179128  0.73516538  0.68054538     0.67000
H528        H  0.39409914  0.65108521  0.69454917     0.15900
H529        H  0.41341692  0.67736711  0.60236742     0.15600
N530        N  0.43908640  0.59471604  0.61669204     0.74700
O531        O  0.33579342  0.72947196  0.69417997    -0.38700
O532        O  0.39840324  0.76920085  0.68435857    -0.38700
O533        O  0.41015066  0.56703729  0.60693039    -0.39400
O534        O  0.48092448  0.59605500  0.60876366    -0.39400
C535        C  0.70898676  0.60749230  0.66653348    -0.11700
C536        C  0.66879145  0.59405001  0.65280432     0.05300
C537        C  0.66782690  0.60236536  0.62643762    -0.07000
C538        C  0.70731782  0.62164864  0.61439920    -0.07800
C539        C  0.74774066  0.63331384  0.62819151    -0.02300
C540        C  0.74823055  0.62656039  0.65450873     0.04500
N541        N  0.78958880  0.63591056  0.66902233     0.67000
H542        H  0.71085708  0.60163112  0.68675874     0.15900
H543        H  0.70666799  0.62703388  0.59411137     0.15600
N544        N  0.62803116  0.59026214  0.61140132     0.74700
O545        O  0.79276631  0.67280319  0.68126607    -0.38700
O546        O  0.81889819  0.60431769  0.67302131    -0.38700
O547        O  0.59840209  0.62062707  0.60556669    -0.39400
O548        O  0.62740002  0.55233199  0.60003519    -0.39400
C549        C  0.65747042  0.28606925  0.67333246    -0.11700
C550        C  0.63752807  0.31881433  0.65716297     0.05300
C551        C  0.63319309  0.30928682  0.63109956    -0.07000
C552        C  0.64855133  0.26730311  0.62178527    -0.07800
C553        C  0.66908365  0.23479455  0.63785862    -0.02300
C554        C  0.67290375  0.24405407  0.66395257     0.04500
N555        N  0.69092650  0.21057835  0.68122681     0.67000
H556        H  0.65991021  0.29257897  0.69344665     0.15900
H557        H  0.64680867  0.26111191  0.60161534     0.15600
N558        N  0.61641774  0.34292924  0.61353503     0.74700
O559        O  0.72911809  0.21822607  0.69266204    -0.38700
O560        O  0.66433497  0.17862208  0.68886683    -0.38700
O561        O  0.64181987  0.37727965  0.60824540    -0.39400
O562        O  0.58082427  0.33424768  0.60007881    -0.39400
C563        C  0.81839123  0.13820882  0.65531603    -0.11700
C564        C  0.81050678  0.13780878  0.62903160     0.05300
C565        C  0.84619724  0.12112882  0.61299061    -0.07000
C566        C  0.88647840  0.10139217  0.62358564    -0.07800
C567        C  0.89337214  0.10088027  0.64982130    -0.02300
C568        C  0.85987841  0.12110455  0.66567636     0.04500
N569        N  0.86639346  0.12252067  0.69243452     0.67000
H570        H  0.79158142  0.15046285  0.66811673     0.15900
H571        H  0.91305691  0.08726197  0.61122929     0.15600
N572        N  0.84294580  0.12552832  0.58607888     0.74700
O573        O  0.88449622  0.15772208  0.70229918    -0.38700
O574        O  0.84709699  0.09258961  0.70634198    -0.38700
O575        O  0.83975607  0.16483170  0.57611698    -0.39400
O576        O  0.84955256  0.09108452  0.57220293    -0.39400
C577        C  0.22400122  0.16013353  0.63541060    -0.11700
C578        C  0.21293046  0.16795759  0.60984516     0.05300
C579        C  0.18134197  0.13712061  0.59787094    -0.07000
C580        C  0.16007801  0.10143886  0.61202764    -0.07800
C581        C  0.17022370  0.09559133  0.63785325    -0.02300
C582        C  0.20362769  0.12449134  0.64911127     0.04500
N583        N  0.21719871  0.11838566  0.67480368     0.67000
H584        H  0.24705616  0.18322306  0.64559484     0.15900
H585        H  0.13456015  0.07921759  0.60298338     0.15600
N586        N  0.17044999  0.14137341  0.57156881     0.74700
O587        O  0.25489888  0.09738325  0.67954063    -0.38700
O588        O  0.19897146  0.14338103  0.69150799    -0.38700
O589        O  0.20236668  0.13601136  0.55530477    -0.39400
O590        O  0.12815693  0.14452015  0.56450617    -0.39400
C591        C  0.32644673  0.28192235  0.64643360    -0.11700
C592        C  0.32267652  0.29520524  0.62092491     0.05300
C593        C  0.35362779  0.32900440  0.61125829    -0.07000
C594        C  0.38664950  0.34945727  0.62730515    -0.07800
C595        C  0.38940940  0.33705411  0.65289998    -0.02300
C596        C  0.35950077  0.30241608  0.66241524     0.04500
N597        N  0.36231476  0.28762919  0.68819645     0.67000
H598        H  0.30267865  0.25633045  0.65421569     0.15900
H599        H  0.40943735  0.37616114  0.61981796     0.15600
N600        N  0.35196872  0.34302772  0.58529807     0.74700
O601        O  0.32814543  0.29436023  0.70291085    -0.38700
O602        O  0.39511508  0.26129188  0.69500779    -0.38700
O603        O  0.35213454  0.38516617  0.57966433    -0.39400
O604        O  0.35748756  0.31374779  0.56809513    -0.39400
C605        C  0.31038653  0.63941405  0.79333889    -0.11700
C606        C  0.30651851  0.63574034  0.81970570     0.05300
C607        C  0.34195564  0.61218414  0.83324751    -0.07000
C608        C  0.37958662  0.59202434  0.82016809    -0.07800
C609        C  0.38253772  0.59497259  0.79369338    -0.02300
C610        C  0.34789451  0.61983044  0.78038756     0.04500
N611        N  0.35015732  0.62548528  0.75356308     0.67000
H612        H  0.28347604  0.65693182  0.78249726     0.15900
H613        H  0.40570570  0.57288911  0.83070736     0.15600
N614        N  0.34043115  0.60870649  0.86019540     0.74700
O615        O  0.32070543  0.60500863  0.73972522    -0.38700
O616        O  0.37472095  0.65761043  0.74434438    -0.38700
O617        O  0.33345595  0.57019581  0.87058097    -0.39400
O618        O  0.35381876  0.64217600  0.87343991    -0.39400
C619        C  0.19743646  0.79860853  0.82210555    -0.11700
C620        C  0.18274116  0.75321615  0.81813809     0.05300
C621        C  0.14823162  0.74388537  0.79970339    -0.07000
C622        C  0.12924520  0.77976380  0.78555589    -0.07800
C623        C  0.14405129  0.82519620  0.78910803    -0.02300
C624        C  0.17817887  0.83473020  0.80780756     0.04500
N625        N  0.19495040  0.88037565  0.81182824     0.67000
H626        H  0.22427632  0.80588835  0.83609481     0.15900
H627        H  0.10288444  0.77174042  0.77142765     0.15600
N628        N  0.13305363  0.69795624  0.79452141     0.74700
O629        O  0.18332497  0.90145094  0.83161434    -0.38700
O630        O  0.22763100  0.89617550  0.79814807    -0.38700
O631        O  0.08964683  0.68904262  0.79305997    -0.39400
O632        O  0.16234180  0.66881856  0.78680383    -0.39400
C633        C  0.42781534  0.23668697  0.80403379    -0.11700
C634        C  0.38189422  0.23492506  0.81363985     0.05300
C635        C  0.35118066  0.27196924  0.80886286    -0.07000
C636        C  0.36717197  0.31032649  0.79518119    -0.07800
C637        C  0.41354038  0.31245265  0.78637815    -0.02300
C638        C  0.44356571  0.27484567  0.79030311     0.04500
N639        N  0.48954903  0.27425813  0.77949065     0.67000
H640        H  0.45107193  0.20763925  0.80649176     0.15900
H641        H  0.34400433  0.33934706  0.79243910     0.15600
N642        N  0.30433347  0.27182489  0.81864952     0.74700
O643        O  0.52487706  0.28198960  0.79322496    -0.38700
O644        O  0.49525993  0.25973937  0.75728549    -0.38700
O645        O  0.29769778  0.27700952  0.84203706    -0.39400
O646        O  0.26973737  0.27287225  0.80370002    -0.39400
C647        C  0.20356588  0.05852616  0.80531957    -0.11700
C648        C  0.20212899  0.06378157  0.77888176     0.05300
C649        C  0.24107721  0.08400394  0.76648790    -0.07000
C650        C  0.27853134  0.10126674  0.78075270    -0.07800
C651        C  0.27831319  0.09921330  0.80718535    -0.02300
C652        C  0.24083379  0.07661876  0.81958521     0.04500
N653        N  0.23805822  0.07506023  0.84657617     0.67000
H654        H  0.17409815  0.04293914  0.81517767     0.15900
H655        H  0.30823481  0.11682759  0.77107272     0.15600
N656        N  0.24402555  0.08676133  0.73954070     0.74700
O657        O  0.23464568  0.11191186  0.85882333    -0.38700
O658        O  0.23110651  0.03724713  0.85772768    -0.38700
O659        O  0.26322664  0.12138347  0.72939377    -0.39400
O660        O  0.23654785  0.05142146  0.72643277    -0.39400
C661        C  0.89193416  0.15416084  0.82447502    -0.11700
C662        C  0.87003145  0.19078065  0.81179973     0.05300
C663        C  0.86842662  0.19039664  0.78505142    -0.07000
C664        C  0.89038544  0.15528024  0.77175076    -0.07800
C665        C  0.91461976  0.12021836  0.78429627    -0.02300
C666        C  0.91384773  0.11884732  0.81100254     0.04500
N667        N  0.93696207  0.08318799  0.82476676     0.67000
H668        H  0.89280925  0.15338384  0.84495166     0.15900
H669        H  0.88989189  0.15654442  0.75132655     0.15600
N670        N  0.84751550  0.22697432  0.77091166     0.74700
O671        O  0.97832847  0.08939514  0.83275152    -0.38700
O672        O  0.91369598  0.04876557  0.83228748    -0.38700
O673        O  0.86885325  0.26485131  0.76880678    -0.39400
O674        O  0.81205918  0.21903191  0.75721183    -0.39400
C675        C  0.70840242  0.29244031  0.82141557    -0.11700
C676        C  0.75222581  0.31464306  0.81957219     0.05300
C677        C  0.75549255  0.35677965  0.80653556    -0.07000
C678        C  0.71555942  0.37531372  0.79510961    -0.07800
C679        C  0.67216916  0.35211533  0.79580484    -0.02300
C680        C  0.66837873  0.31096469  0.80972307     0.04500
N681        N  0.62497193  0.28637760  0.81109291     0.67000
H682        H  0.70553867  0.26003332  0.83145157     0.15900
H683        H  0.71914613  0.40697135  0.78442091     0.15600
N684        N  0.79990033  0.37901760  0.80274557     0.74700
O685        O  0.61995253  0.25019540  0.79837086    -0.38700
O686        O  0.59738626  0.29404872  0.82924177    -0.38700
O687        O  0.82906227  0.36242382  0.78736664    -0.39400
O688        O  0.80713644  0.41834536  0.81182832    -0.39400
C689        C  0.63029365  0.69440249  0.80424382    -0.11700
C690        C  0.67886664  0.69693681  0.80903760     0.05300
C691        C  0.70805051  0.66021882  0.80168013    -0.07000
C692        C  0.68837670  0.62267848  0.78905383    -0.07800
C693        C  0.63994490  0.62021227  0.78453439    -0.02300
C694        C  0.61069735  0.65637035  0.79210617     0.04500
N695        N  0.56167442  0.65628796  0.78602066     0.67000
H696        H  0.60768422  0.72281471  0.80915816     0.15900
H697        H  0.71073404  0.59433496  0.78370607     0.15600
N698        N  0.75710944  0.65952961  0.80792343     0.74700
O699        O  0.53147549  0.65155786  0.80331580    -0.38700
O700        O  0.54856315  0.66685102  0.76395287    -0.38700
O701        O  0.76996989  0.66516202  0.83054000    -0.39400
O702        O  0.78681424  0.64669769  0.79174500    -0.39400
C703        C  0.86983998  0.82580855  0.78388186    -0.11700
C704        C  0.86715307  0.87265310  0.77833645     0.05300
C705        C  0.82700569  0.89746544  0.78537463    -0.07000
C706        C  0.79019436  0.87497114  0.79803230    -0.07800
C707        C  0.79296004  0.82791580  0.80394883    -0.02300
C708        C  0.83377603  0.80338458  0.79702004     0.04500
N709        N  0.84030210  0.75638148  0.80420557     0.67000
H710        H  0.90120609  0.80687419  0.77892182     0.15900
H711        H  0.75877399  0.89409734  0.80259756     0.15600
N712        N  0.82191634  0.94462756  0.77837586     0.74700
O713        O  0.85522879  0.72794377  0.78823199    -0.38700
O714        O  0.83805513  0.74486729  0.82720928    -0.38700
O715        O  0.81210827  0.95507223  0.75580027    -0.39400
O716        O  0.82043203  0.97503215  0.79522775    -0.39400
C717        C  0.45518983  0.11318270  0.87687457    -0.11700
C718        C  0.40725391  0.10160227  0.87325300     0.05300
C719        C  0.38725700  0.06737175  0.88928212    -0.07000
C720        C  0.41547153  0.04430244  0.90683576    -0.07800
C721        C  0.46246017  0.05673295  0.91054504    -0.02300
C722        C  0.48207673  0.09242548  0.89599777     0.04500
N723        N  0.52872784  0.10862054  0.90097546     0.67000
H724        H  0.47216352  0.13871940  0.86505595     0.15900
H725        H  0.39997980  0.01768366  0.91861046     0.15600
N726        N  0.33791701  0.05739444  0.88933666     0.74700
O727        O  0.56089711  0.10315099  0.88487238    -0.38700
O728        O  0.53712732  0.13090600  0.92087230    -0.38700
O729        O  0.32384424  0.01629875  0.88834499    -0.39400
O730        O  0.30903128  0.08862197  0.89460775    -0.39400
C731        C  0.61817560  0.82236418  0.87219120    -0.11700
C732        C  0.66762260  0.82555652  0.87087210     0.05300
C733        C  0.69181951  0.85169432  0.88933024    -0.07000
C734        C  0.66631584  0.87555217  0.90758250    -0.07800
C735        C  0.61730603  0.87184795  0.90878479    -0.02300
C736        C  0.59318890  0.84415158  0.89140560     0.04500
N737        N  0.54348870  0.83731589  0.89346461     0.67000
H738        H  0.59868863  0.80279715  0.85830687     0.15900
H739        H  0.68490044  0.89605692  0.92143670     0.15600
N740        N  0.74213760  0.85272934  0.89059681     0.74700
O741        O  0.51613328  0.85469227  0.87728960    -0.38700
O742        O  0.52679960  0.81466284  0.91180823    -0.38700
O743        O  0.76368984  0.89064668  0.89149230    -0.39400
O744        O  0.76465995  0.81594490  0.89377394    -0.39400
C745        C  0.16205655  0.38950237  0.54308895    -0.11700
C746        C  0.11537131  0.37592562  0.53942560     0.05300
C747        C  0.09864983  0.33607143  0.55159036    -0.07000
C748        C  0.12915248  0.31009793  0.56672984    -0.07800
C749        C  0.17767920  0.32055658  0.56822258    -0.02300
C750        C  0.19386161  0.36131042  0.55594103     0.04500
N751        N  0.24276279  0.37273141  0.55397057     0.67000
H752        H  0.17507839  0.41993751  0.53345256     0.15900
H753        H  0.11454455  0.28073937  0.57657209     0.15600
N754        N  0.05154626  0.32019989  0.54768429     0.74700
O755        O  0.27030545  0.34573255  0.54282922    -0.38700
O756        O  0.25648049  0.41296021  0.55889438    -0.38700
O757        O  0.04124504  0.29965341  0.52747937    -0.39400
O758        O  0.02310521  0.31896410  0.56598070    -0.39400
C759        C  0.89373008  0.54826667  0.53948127    -0.11700
C760        C  0.94284703  0.54897351  0.54217543     0.05300
C761        C  0.96330802  0.57783288  0.56040710    -0.07000
C762        C  0.93465095  0.60633547  0.57505103    -0.07800
C763        C  0.88558403  0.60769582  0.57135246    -0.02300
C764        C  0.86516617  0.57794394  0.55333411     0.04500
N765        N  0.81612622  0.58002419  0.54734449     0.67000
H766        H  0.87779027  0.52681066  0.52512826     0.15900
H767        H  0.95101888  0.62820030  0.58905661     0.15600
N768        N  0.01322535  0.58032674  0.56329403     0.74700
O769        O  0.79985575  0.61515677  0.53644962    -0.38700
O770        O  0.79090871  0.54442015  0.54922075    -0.38700
O771        O  0.03714666  0.60535154  0.54855539    -0.39400
O772        O  0.03245352  0.56292822  0.58257105    -0.39400
C773        C  0.08541774  0.59044100  0.89016522    -0.11700
C774        C  0.10746686  0.56075678  0.90719313     0.05300
C775        C  0.15693257  0.55858051  0.90776648    -0.07000
C776        C  0.18353094  0.58727549  0.89195591    -0.07800
C777        C  0.16182853  0.61625525  0.87407753    -0.02300
C778        C  0.11181053  0.61668500  0.87300432     0.04500
N779        N  0.08697121  0.64051770  0.85352276     0.67000
H780        H  0.04735071  0.59225409  0.88972622     0.15900
H781        H  0.22148588  0.58639765  0.89359308     0.15600
N782        N  0.18043740  0.52755658  0.92460370     0.74700
O783        O  0.08406621  0.62255170  0.83194687    -0.38700
O784        O  0.05869790  0.67197361  0.85937818    -0.38700
O785        O  0.17129919  0.48516197  0.92391869    -0.39400
O786        O  0.21029356  0.54245056  0.94023564    -0.39400
C787        C  0.97526624  0.34336851  0.88959755    -0.11700
C788        C  0.95370326  0.37057006  0.90790731     0.05300
C789        C  0.90429498  0.37270682  0.90881849    -0.07000
C790        C  0.87729790  0.34651431  0.89207467    -0.07800
C791        C  0.89843956  0.32029294  0.87289691    -0.02300
C792        C  0.94840539  0.31948546  0.87164774     0.04500
N793        N  0.97268972  0.29689089  0.85162267     0.67000
H794        H  0.01332236  0.34201972  0.88871765     0.15900
H795        H  0.83938974  0.34748322  0.89392112     0.15600
N796        N  0.88120457  0.40200891  0.92648770     0.74700
O797        O  0.96812520  0.31102115  0.82916536    -0.38700
O798        O  0.00358559  0.26728246  0.85671887    -0.38700
O799        O  0.88698986  0.44490909  0.92515572    -0.39400
O800        O  0.85358497  0.38527193  0.94280561    -0.39400
C801        C  0.68023720  0.06005186  0.57116685    -0.11700
C802        C  0.66770388  0.10625908  0.57493024     0.05300
C803        C  0.63255014  0.12549179  0.55901469    -0.07000
C804        C  0.61004874  0.09814178  0.54094222    -0.07800
C805        C  0.62433178  0.05298776  0.53666031    -0.02300
C806        C  0.66057542  0.03421642  0.55155768     0.04500
N807        N  0.67826774  0.98923943  0.54668716     0.67000
H808        H  0.70615595  0.04374702  0.58315285     0.15900
H809        H  0.58258718  0.11291608  0.52927861     0.15600
N810        N  0.62108783  0.17321530  0.55971844     0.74700
O811        O  0.69908357  0.98135913  0.52611286    -0.38700
O812        O  0.67966000  0.95975294  0.56423029    -0.38700
O813        O  0.65148975  0.20275525  0.55332854    -0.39400
O814        O  0.57898904  0.18539566  0.56299914    -0.39400
C815        C  0.45084817  0.84025191  0.53766723    -0.11700
C816        C  0.44530940  0.88785659  0.53642825     0.05300
C817        C  0.41567373  0.90979174  0.55375824    -0.07000
C818        C  0.39328616  0.88399122  0.57268958    -0.07800
C819        C  0.39797202  0.83588266  0.57385016    -0.02300
C820        C  0.42670094  0.81398645  0.55570597     0.04500
N821        N  0.42993603  0.76508795  0.55443150     0.67000
H822        H  0.47316049  0.82328233  0.52403307     0.15900
H823        H  0.37176917  0.90173606  0.58635576     0.15600
N824        N  0.40720822  0.95801024  0.55183766     0.74700
O825        O  0.39420893  0.74170209  0.54842812    -0.38700
O826        O  0.46965254  0.74601012  0.55556141    -0.38700
O827        O  0.38593121  0.97410568  0.53283140    -0.39400
O828        O  0.42102826  0.98460626  0.56907215    -0.39400
C829        C  0.37967249  0.06759263  0.05875270    -0.11700
C830        C  0.40118163  0.10162134  0.07367836     0.05300
C831        C  0.45102642  0.10547523  0.07316768    -0.07000
C832        C  0.47713493  0.07831487  0.05651749    -0.07800
C833        C  0.45517885  0.04473121  0.04176514    -0.02300
C834        C  0.40619523  0.03848906  0.04358583     0.04500
N835        N  0.38272180  0.00378387  0.02926064     0.67000
H836        H  0.34176425  0.06387599  0.05834773     0.15900
H837        H  0.51489240  0.08309669  0.05525676     0.15600
N838        N  0.47597977  0.13515328  0.09001047     0.74700
O839        O  0.35845436  0.01487975  0.01022117    -0.38700
O840        O  0.37926499  0.96370926  0.03821465    -0.38700
O841        O  0.47373405  0.12822432  0.11354896    -0.39400
O842        O  0.50559903  0.16357446  0.08137032    -0.39400
C843        C  0.41982892  0.32067799  0.11805823    -0.11700
C844        C  0.41129872  0.32519832  0.14409966     0.05300
C845        C  0.38066924  0.29425974  0.15604324    -0.07000
C846        C  0.36131297  0.25809520  0.14270177    -0.07800
C847        C  0.37006910  0.25213857  0.11684053    -0.02300
C848        C  0.39909268  0.28460966  0.10424862     0.04500
N849        N  0.40726615  0.28197313  0.07763805     0.67000
H850        H  0.44325350  0.34452770  0.10852276     0.15900
H851        H  0.33985774  0.23393451  0.15312150     0.15600
N852        N  0.36660123  0.30061766  0.18159071     0.74700
O853        O  0.37398056  0.28976357  0.06244061    -0.38700
O854        O  0.44879294  0.27934382  0.06936556    -0.38700
O855        O  0.33013283  0.32378081  0.18579352    -0.39400
O856        O  0.38276474  0.27465433  0.19864532    -0.39400
C857        C  0.10865092  0.33215311  0.40836218    -0.11700
C858        C  0.10759407  0.38014024  0.40754974     0.05300
C859        C  0.13097859  0.40332358  0.38770473    -0.07000
C860        C  0.15668684  0.37840010  0.36988887    -0.07800
C861        C  0.16040895  0.33036616  0.37159875    -0.02300
C862        C  0.13549788  0.30717298  0.39111275     0.04500
N863        N  0.13936525  0.25868726  0.39483518     0.67000
H864        H  0.09042057  0.31407351  0.42343357     0.15900
H865        H  0.17411077  0.39690411  0.35471740     0.15600
N866        N  0.12984346  0.45221380  0.38570348     0.74700
O867        O  0.17905091  0.24137083  0.39946987    -0.38700
O868        O  0.10271752  0.23471466  0.39801776    -0.38700
O869        O  0.16062535  0.47581660  0.39695201    -0.39400
O870        O  0.10464572  0.47084800  0.36893326    -0.39400
C871        C  0.29827811  0.32672402  0.28695448    -0.11700
C872        C  0.30019713  0.32200014  0.31327847     0.05300
C873        C  0.34144946  0.33494681  0.32613418    -0.07000
C874        C  0.38007816  0.35198349  0.31236562    -0.07800
C875        C  0.37856197  0.35512158  0.28579792    -0.02300
C876        C  0.33687517  0.34271957  0.27314304     0.04500
N877        N  0.33266234  0.34600248  0.24631488     0.67000
H878        H  0.26635185  0.31739373  0.27695075     0.15900
H879        H  0.41202995  0.36105453  0.32238562     0.15600
N880        N  0.34583352  0.32770686  0.35275209     0.74700
O881        O  0.31435514  0.31299570  0.23447904    -0.38700
O882        O  0.33663274  0.38457327  0.23554358    -0.38700
O883        O  0.36274592  0.29057233  0.36098305    -0.39400
O884        O  0.33882802  0.36041578  0.36777137    -0.39400
C885        C  0.63983994  0.08449365  0.36753130    -0.11700
C886        C  0.68791652  0.09297511  0.37159906     0.05300
C887        C  0.71109648  0.06970169  0.39150750    -0.07000
C888        C  0.68538636  0.04099584  0.40771902    -0.07800
C889        C  0.63647231  0.03634530  0.40510946    -0.02300
C890        C  0.61393894  0.05689017  0.38418590     0.04500
N891        N  0.56439317  0.05198063  0.38030794     0.67000
H892        H  0.62182520  0.10078945  0.35183488     0.15900
H893        H  0.70314109  0.02469672  0.42350445     0.15600
N894        N  0.75975511  0.07767610  0.39683168     0.74700
O895        O  0.53611218  0.07457130  0.39367535    -0.38700
O896        O  0.54933223  0.03087209  0.36115378    -0.38700
O897        O  0.77176769  0.11253989  0.40934410    -0.39400
O898        O  0.78917790  0.04610812  0.39323859    -0.39400
C899        C  0.70799716  0.28422257  0.32378251    -0.11700
C900        C  0.68749155  0.24038164  0.32284762     0.05300
C901        C  0.64565613  0.23387897  0.30896204    -0.07000
C902        C  0.62688711  0.27026315  0.29506624    -0.07800
C903        C  0.64894551  0.31340008  0.29475058    -0.02300
C904        C  0.68864654  0.32084353  0.31009134     0.04500
N905        N  0.71136897  0.36450857  0.31074467     0.67000
H906        H  0.74006360  0.28961005  0.33448057     0.15900
H907        H  0.59579156  0.26419349  0.28367476     0.15600
N908        N  0.62412620  0.18962668  0.30696696     0.74700
O909        O  0.69952844  0.39296357  0.32742446    -0.38700
O910        O  0.74950474  0.37025237  0.29892847    -0.38700
O911        O  0.58570202  0.18166214  0.31812286    -0.39400
O912        O  0.63927134  0.16141207  0.29094907    -0.39400
C913        C  0.11502443  0.60682737  0.07523951    -0.11700
C914        C  0.16452247  0.60772690  0.07299559     0.05300
C915        C  0.18531751  0.58612876  0.05184534    -0.07000
C916        C  0.15708043  0.56223835  0.03470997    -0.07800
C917        C  0.10801200  0.56221631  0.03683296    -0.02300
C918        C  0.08672523  0.58579615  0.05688527     0.04500
N919        N  0.03657215  0.58895686  0.05859496     0.67000
H920        H  0.09797893  0.62277422  0.09120661     0.15900
H921        H  0.17347354  0.54478751  0.01898928     0.15600
N922        N  0.23461449  0.58992872  0.04665200     0.74700
O923        O  0.01559593  0.57634158  0.07848559    -0.38700
O924        O  0.01347562  0.60726032  0.04085174    -0.38700
O925        O  0.25835359  0.55439102  0.04222035    -0.39400
O926        O  0.25302678  0.62894357  0.04321834    -0.39400
C927        C  0.31291692  0.56360275  0.13150116    -0.11700
C928        C  0.30858949  0.61144581  0.12910975     0.05300
C929        C  0.34603176  0.63986739  0.13757148    -0.07000
C930        C  0.38391133  0.62039975  0.15048035    -0.07800
C931        C  0.38727412  0.57291224  0.15338289    -0.02300
C932        C  0.35236574  0.54419942  0.14304600     0.04500
N933        N  0.35529380  0.49539496  0.14529151     0.67000
H934        H  0.28479616  0.54104018  0.12541704     0.15900
H935        H  0.41193314  0.64240055  0.15734854     0.15600
N936        N  0.34693168  0.68824081  0.13251562     0.74700
O937        O  0.34519150  0.47596614  0.16597405    -0.38700
O938        O  0.36267085  0.47145438  0.12591088    -0.38700
O939        O  0.35666254  0.71609196  0.14996648    -0.39400
O940        O  0.34275826  0.70284092  0.11012225    -0.39400
C941        C  0.22347821  0.09845492  0.11323381    -0.11700
C942        C  0.25620802  0.12651276  0.12576157     0.05300
C943        C  0.24981823  0.13556626  0.15176094    -0.07000
C944        C  0.21201201  0.11571292  0.16467778    -0.07800
C945        C  0.18075614  0.08574117  0.15257916    -0.02300
C946        C  0.18570448  0.07828320  0.12636442     0.04500
N947        N  0.15422499  0.04868011  0.11306336     0.67000
H948        H  0.22765044  0.09169173  0.09323887     0.15900
H949        H  0.20861453  0.12190598  0.18476324     0.15600
N950        N  0.28331800  0.16185100  0.16586973     0.74700
O951        O  0.11759236  0.06502551  0.10307191    -0.38700
O952        O  0.16672087  0.00838640  0.10779507    -0.38700
O953        O  0.26947766  0.19451289  0.17950415    -0.39400
O954        O  0.32497257  0.14760855  0.16815796    -0.39400
C955        C  0.18554473  0.19291788  0.28574276    -0.11700
C956        C  0.18210000  0.19782528  0.31216221     0.05300
C957        C  0.16134124  0.16228143  0.32660311    -0.07000
C958        C  0.14333986  0.12367411  0.31441579    -0.07800
C959        C  0.14690907  0.11881102  0.28814781    -0.02300
C960        C  0.16826787  0.15369100  0.27367506     0.04500
N961        N  0.17029007  0.15093076  0.24670945     0.67000
H962        H  0.20057175  0.22024728  0.27431244     0.15900
H963        H  0.12797783  0.09640677  0.32575807     0.15600
N964        N  0.16058510  0.16355985  0.35366779     0.74700
O965        O  0.13313211  0.15494964  0.23382757    -0.38700
O966        O  0.20959846  0.14982503  0.23567747    -0.38700
O967        O  0.12385692  0.15177996  0.36548479    -0.39400
O968        O  0.19851445  0.16902679  0.36571244    -0.39400
C969        C  0.86797832  0.12232970  0.27746401    -0.11700
C970        C  0.89994249  0.09502219  0.29085960     0.05300
C971        C  0.89593184  0.09141926  0.31736897    -0.07000
C972        C  0.85796471  0.11198853  0.32959151    -0.07800
C973        C  0.82322627  0.13539039  0.31578800    -0.02300
C974        C  0.82934825  0.14182918  0.28948063     0.04500
N975        N  0.79448550  0.16385275  0.27420432     0.67000
H976        H  0.87105861  0.12588524  0.25715320     0.15900
H977        H  0.85420639  0.10744224  0.34984334     0.15600
N978        N  0.92717355  0.06341719  0.33184960     0.74700
O979        O  0.80461243  0.20053287  0.26260056    -0.38700
O980        O  0.75697716  0.14274120  0.26880515    -0.38700
O981        O  0.96021025  0.08187154  0.34412908    -0.39400
O982        O  0.91693576  0.02183676  0.33584856    -0.39400
C983        C  0.18722848  0.73131722  0.16513223    -0.11700
C984        C  0.18616411  0.73066100  0.13851926     0.05300
C985        C  0.16989557  0.76951528  0.12524386    -0.07000
C986        C  0.15365100  0.80727330  0.13865376    -0.07800
C987        C  0.15508461  0.80798976  0.16514345    -0.02300
C988        C  0.17227592  0.76979109  0.17850474     0.04500
N989        N  0.17254969  0.76858658  0.20552511     0.67000
H990        H  0.19899282  0.70148174  0.17563816     0.15900
H991        H  0.14121043  0.83694308  0.12821534     0.15600
N992        N  0.17204181  0.77222251  0.09825114     0.74700
O993        O  0.13467414  0.76166709  0.21740638    -0.38700
O994        O  0.21117993  0.76759399  0.21726971    -0.38700
O995        O  0.13517052  0.78000386  0.08566732    -0.39400
O996        O  0.21148517  0.77327167  0.08732285    -0.39400
C997        C  0.96077550  0.31097605  0.07300296    -0.11700
C998        C  0.91176305  0.31850414  0.07492403     0.05300
C999        C  0.89076025  0.35001685  0.05777942    -0.07000
C1000       C  0.91861463  0.37419424  0.04055432    -0.07800
C1001       C  0.96656828  0.36539491  0.03829696    -0.02300
C1002       C  0.98773290  0.33268148  0.05416323     0.04500
N1003       N  0.03593668  0.32026680  0.05074777     0.67000
H1004       H  0.97840007  0.28760188  0.08578123     0.15900
H1005       H  0.90217137  0.39849329  0.02775049     0.15600
N1006       N  0.84091232  0.35538786  0.05596162     0.74700
O1007       O  0.06555659  0.32739926  0.06807558    -0.38700
O1008       O  0.04824448  0.29908517  0.03110905    -0.38700
O1009       O  0.82346141  0.39512784  0.05554744    -0.39400
O1010       O  0.81591877  0.32166864  0.04934392    -0.39400
C1011       C  0.92686517  0.10815295  0.12951835    -0.11700
C1012       C  0.92365507  0.10346772  0.15586392     0.05300
C1013       C  0.90023321  0.13701942  0.16996958    -0.07000
C1014       C  0.88196764  0.17541193  0.15770820    -0.07800
C1015       C  0.88514000  0.18052852  0.13128258    -0.02300
C1016       C  0.90684173  0.14571910  0.11704116     0.04500
N1017       N  0.90698468  0.14687854  0.08999013     0.67000
H1018       H  0.94364376  0.08170622  0.11844801     0.15900
H1019       H  0.86642881  0.20206695  0.16914256     0.15600
N1020       N  0.89654263  0.13370990  0.19686514     0.74700
O1021       O  0.94518196  0.14284164  0.07807804    -0.38700
O1022       O  0.86854367  0.14582278  0.07805309    -0.38700
O1023       O  0.93072310  0.14577315  0.21057668    -0.39400
O1024       O  0.85717368  0.12512883  0.20687048    -0.39400
C1025       C  0.70010941  0.35130309  0.13159594    -0.11700
C1026       C  0.69416170  0.34819902  0.15784874     0.05300
C1027       C  0.72834348  0.32588826  0.17262545    -0.07000
C1028       C  0.76763529  0.30670869  0.16084380    -0.07800
C1029       C  0.77338082  0.30949753  0.13445523    -0.02300
C1030       C  0.73886059  0.33168616  0.11973566     0.04500
N1031       N  0.74091831  0.33197999  0.09269697     0.67000
H1032       H  0.67342566  0.36750499  0.12000297     0.15900
H1033       H  0.79429724  0.29036146  0.17240130     0.15600
N1034       N  0.72503500  0.32480994  0.19959238     0.74700
O1035       O  0.74233736  0.29444077  0.08096964    -0.38700
O1036       O  0.73248865  0.36850207  0.08062067    -0.38700
O1037       O  0.71992242  0.28700774  0.21101765    -0.39400
O1038       O  0.73371806  0.36063329  0.21207237    -0.39400
C1039       C  0.45402885  0.82488309  0.41221233    -0.11700
C1040       C  0.45771655  0.87211832  0.40733772     0.05300
C1041       C  0.43620629  0.89053968  0.38557115    -0.07000
C1042       C  0.40975033  0.86200343  0.36973143    -0.07800
C1043       C  0.40392324  0.81510797  0.37530837    -0.02300
C1044       C  0.42710636  0.79641768  0.39660304     0.04500
N1045       N  0.42148093  0.74922831  0.40348996     0.67000
H1046       H  0.47060471  0.81040765  0.42888513     0.15900
H1047       H  0.39317705  0.87671739  0.35312879     0.15600
N1048       N  0.43963088  0.93837845  0.37979201     0.74700
O1049       O  0.45611608  0.72246331  0.40204118    -0.38700
O1050       O  0.38506795  0.73653085  0.41527776    -0.38700
O1051       O  0.46441976  0.95167904  0.36135383    -0.39400
O1052       O  0.41230813  0.96625125  0.39041418    -0.39400
C1053       C  0.21555384  0.81838630  0.28396329    -0.11700
C1054       C  0.18024211  0.83785281  0.29889031     0.05300
C1055       C  0.18381001  0.83431036  0.32547548    -0.07000
C1056       C  0.22367874  0.81364920  0.33641220    -0.07800
C1057       C  0.26022919  0.79670870  0.32122925    -0.02300
C1058       C  0.25566255  0.79923820  0.29469389     0.04500
N1059       N  0.29341211  0.78670454  0.27829303     0.67000
H1060       H  0.21369840  0.82085241  0.26353074     0.15900
H1061       H  0.22653480  0.81163986  0.35681508     0.15600
N1062       N  0.14876281  0.85320780  0.34161968     0.74700
O1063       O  0.28616958  0.75844507  0.26071434    -0.38700
O1064       O  0.33092412  0.81002719  0.27840054    -0.38700
O1065       O  0.11804322  0.82717047  0.35132652    -0.39400
O1066       O  0.15365938  0.89352602  0.34979008    -0.39400
C1067       C  0.38677155  0.63743427  0.32930177    -0.11700
C1068       C  0.38633476  0.68090190  0.31788739     0.05300
C1069       C  0.40189223  0.68611829  0.29279357    -0.07000
C1070       C  0.41661153  0.64774313  0.27941736    -0.07800
C1071       C  0.41835364  0.60400997  0.29074505    -0.02300
C1072       C  0.40270498  0.59895879  0.31600477     0.04500
N1073       N  0.40171787  0.55529900  0.32833548     0.67000
H1074       H  0.37394895  0.63325978  0.34847096     0.15900
H1075       H  0.42872288  0.65289649  0.26019676     0.15600
N1076       N  0.40453228  0.73038925  0.28089020     0.74700
O1077       O  0.43013043  0.54717685  0.34612901    -0.38700
O1078       O  0.36718294  0.52871682  0.32485665    -0.38700
O1079       O  0.42726363  0.76235228  0.29138019    -0.39400
O1080       O  0.39161526  0.73521875  0.25819610    -0.39400
C1081       C  0.63384096  0.81037721  0.07245157    -0.11700
C1082       C  0.68266436  0.81104758  0.06782735     0.05300
C1083       C  0.70015103  0.83943980  0.04813949    -0.07000
C1084       C  0.66927857  0.86686366  0.03418602    -0.07800
C1085       C  0.62053676  0.86460839  0.03811506    -0.02300
C1086       C  0.60274475  0.83596776  0.05740650     0.04500
N1087       N  0.55321021  0.83096427  0.06115779     0.67000
H1088       H  0.61953851  0.78938870  0.08758266     0.15900
H1089       H  0.68318032  0.88811599  0.01902584     0.15600
N1090       N  0.74857633  0.83839374  0.04079086     0.74700
O1091       O  0.53452413  0.84590301  0.08108823    -0.38700
O1092       O  0.52974703  0.80527076  0.04669784    -0.38700
O1093       O  0.76497836  0.80280292  0.03066514    -0.39400
O1094       O  0.77247837  0.87499055  0.04046429    -0.39400
C1095       C  0.69137749  0.63739958  0.10925934    -0.11700
C1096       C  0.71342901  0.67298539  0.12273350     0.05300
C1097       C  0.71643276  0.66943467  0.14935236    -0.07000
C1098       C  0.69733292  0.63147115  0.16178717    -0.07800
C1099       C  0.67224388  0.59764303  0.14866811    -0.02300
C1100       C  0.67062834  0.59993028  0.12199703     0.04500
N1101       N  0.64598540  0.56608994  0.10767961     0.67000
H1102       H  0.68905437  0.63935561  0.08883698     0.15900
H1103       H  0.69950651  0.63027651  0.18222340     0.15600
N1104       N  0.73395422  0.70640879  0.16438336     0.74700
O1105       O  0.60343319  0.57239743  0.10188060    -0.38700
O1106       O  0.66855049  0.53404670  0.09740792    -0.38700
O1107       O  0.70926115  0.74189473  0.16701114    -0.39400
O1108       O  0.76886670  0.70011492  0.17871872    -0.39400
C1109       C  0.85244911  0.85311553  0.15525705    -0.11700
C1110       C  0.89891639  0.83785395  0.15249213     0.05300
C1111       C  0.90906593  0.80488299  0.13387386    -0.07000
C1112       C  0.87238082  0.78653933  0.11918681    -0.07800
C1113       C  0.82590338  0.80148936  0.12243805    -0.02300
C1114       C  0.81623997  0.83557853  0.14038307     0.04500
N1115       N  0.76932373  0.85119421  0.14458803     0.67000
H1116       H  0.84387853  0.87896149  0.16913093     0.15900
H1117       H  0.87998144  0.75995665  0.10557375     0.15600
N1118       N  0.95579070  0.78821818  0.13044740     0.74700
O1119       O  0.74489553  0.83290764  0.16183333    -0.38700
O1120       O  0.75619521  0.88864847  0.13489720    -0.38700
O1121       O  0.97062756  0.75595014  0.14425376    -0.39400
O1122       O  0.97871660  0.79975769  0.11098917    -0.39400
C1123       C  0.93981705  0.60381598  0.37676370    -0.11700
C1124       C  0.89029990  0.60418306  0.37693225     0.05300
C1125       C  0.86598308  0.57768712  0.39531488    -0.07000
C1126       C  0.89139602  0.55113179  0.41260688    -0.07800
C1127       C  0.94059331  0.55188645  0.41257616    -0.02300
C1128       C  0.96494979  0.57873649  0.39474119     0.04500
N1129       N  0.01517864  0.58171233  0.39522946     0.67000
H1130       H  0.95922840  0.62324206  0.36266932     0.15900
H1131       H  0.87275416  0.53089257  0.42667109     0.15600
N1132       N  0.81580791  0.57882526  0.39742676     0.74700
O1133       O  0.03912763  0.56340806  0.37797656    -0.38700
O1134       O  0.03571911  0.60150864  0.41332848    -0.38700
O1135       O  0.79238531  0.54194392  0.39689869    -0.39400
O1136       O  0.79554617  0.61579587  0.40305426    -0.39400
C1137       C  0.76998317  0.56599115  0.30288053    -0.11700
C1138       C  0.76705844  0.61236607  0.30949465     0.05300
C1139       C  0.72750303  0.63816362  0.30178371    -0.07000
C1140       C  0.69214299  0.61723407  0.28749672    -0.07800
C1141       C  0.69464794  0.57056724  0.28170813    -0.02300
C1142       C  0.73401903  0.54494127  0.28924058     0.04500
N1143       N  0.73832008  0.49765723  0.28282857     0.67000
H1144       H  0.80067576  0.54607105  0.30799093     0.15900
H1145       H  0.66130078  0.63681231  0.28221647     0.15600
N1146       N  0.72128453  0.68461159  0.30966647     0.74700
O1147       O  0.74891458  0.48661017  0.26052767    -0.38700
O1148       O  0.74013294  0.46796167  0.30020368    -0.38700
O1149       O  0.71657693  0.71603582  0.29336525    -0.39400
O1150       O  0.71379928  0.69319272  0.33266607    -0.38200
C1151       C  0.94950248  0.78509193  0.30340533    -0.11700
C1152       C  0.91845483  0.81896000  0.29489769     0.05300
C1153       C  0.86982382  0.81359456  0.29873036    -0.07000
C1154       C  0.85280833  0.77372756  0.31028830    -0.07800
C1155       C  0.88357788  0.73859302  0.31775872    -0.02300
C1156       C  0.93250775  0.74456834  0.31432452     0.04500
N1157       N  0.96499274  0.70856263  0.31986670     0.67000
H1158       H  0.98699389  0.78897810  0.30023558     0.15900
H1159       H  0.81526588  0.77008267  0.31333312     0.15600
N1160       N  0.83753295  0.84893143  0.29178454     0.74700
O1161       O  0.96669620  0.67392635  0.30570529    -0.38700
O1162       O  0.99677103  0.71468872  0.33618878    -0.38700
O1163       O  0.80790848  0.84191588  0.27444083    -0.39400
O1164       O  0.83352445  0.88380729  0.30561911    -0.39400
loop_ 
_geom_bond_atom_site_label_1 
_geom_bond_atom_site_label_2 
_geom_bond_distance 
_geom_bond_site_symmetry_2 
_ccdc_geom_bond_type 
C1            C2   1.396       .  A
C1            C6   1.401       .  A
C1         C1138   1.476       .  S
C2            C3   1.398       .  A
C2            H7   1.084       .  S
C3            C4   1.402       .  A
C3         C1155   1.477       .  S
C4            C5   1.405       .  A
C4            H8   1.083       .  S
C5            C6   1.403       .  A
C5         C1124   1.484       .  S
C6            H9   1.082       .  S
C10          C11   1.400       .  A
C10          C15   1.396       .  A
C10        C1113   1.475       .  S
C11          C12   1.407       .  A
C11          H16   1.083       .  S
C12          C13   1.411       .  A
C12        C1082   1.493       .  S
C13          C14   1.408       .  A
C13          H17   1.083       .  S
C14          C15   1.403       .  A
C14        C1096   1.489       .  S
C15          H18   1.084       .  S
C19          C20   1.399       .  A
C19          C24   1.397       .  A
C19        C1068   1.471       .  S
C20          C21   1.405       .  A
C20          H25   1.083       .  S
C21          C22   1.410       .  A
C21        C1043   1.485       .  S
C22          C23   1.405       .  A
C22          H26   1.084       .  S
C23          C24   1.402       .  A
C23        C1057   1.486       .  S
C24          H27   1.084       .  S
C28          C29   1.398       .  A
C28          C33   1.407       .  A
C28        C1015   1.483       .  S
C29          C30   1.393       .  A
C29          H34   1.084       .  S
C30          C31   1.403       .  A
C30        C1029   1.479       .  S
C31          C32   1.411       .  A
C31          H35   1.082       .  S
C32          C33   1.410       .  A
C32         C998   1.501       .  S
C33          H36   1.080       .  S
C37          C74   1.470       .  S
C37        C1054   1.482       .  S
C37          N55   1.346       .  A
N38          N55   1.316       .  A
N38          N60   1.317       .  A
N38         Co75   2.068       .  S
C39          C77   1.457       .  S
C39          H84   1.081       .  S
C39          N64   1.334       .  A
H40          C81   1.081       .  S
C41          C45   1.465       .  S
C41          H70   1.081       .  S
C41          N65   1.344       .  A
Co42         N60   2.087       .  S
Co42         N50   2.063   1_455  S
Co42         N82   2.054   1_565  S
Co42         N58   2.081   1_465  S
Co42        Cl86   2.458       .  S
N43          C81   1.340       .  A
N43          N50   1.321       .  A
N43         Co44   2.089       .  S
Co44         N47   2.072       .  S
Co44         N64   2.062   1_565  S
Co44         N51   2.090   1_565  S
Co44        Cl86   2.430   1_655  S
C45        C1110   1.478       .  S
C45          N83   1.349       .  A
N46          N53   1.320       .  A
N46          N76   1.317       .  A
N46         Co79   2.053       .  S
N47          N65   1.317       .  A
N47          N83   1.319       .  A
N48          C77   1.350       .  A
N48          N58   1.324       .  A
H49          C74   1.081       .  S
N50          N71   1.320       .  A
N51          N69   1.320       .  A
N51          N56   1.323       .  A
C52          C80   1.452       .  S
C52        C1012   1.466       .  S
C52          N56   1.350       .  A
N53          C68   1.344       .  A
N53         Co75   2.097       .  S
C54          C57   1.448       .  S
C54          H88   1.081       .  S
C54          N82   1.331       .  A
C57         C959   1.468       .  S
C57          N78   1.354       .  A
N58          N64   1.317       .  A
N59          C85   1.335       .  A
N59          N61   1.317       .  A
N59         Co75   2.069   1_545  S
N60          C74   1.348       .  A
N61          N89   1.327       .  A
N61         Co79   2.084   1_545  S
H62          C85   1.082       .  S
H63          C80   1.082   1_455  S
N65         Co79   2.084   1_655  S
N66          N78   1.327       .  A
N66          N82   1.320       .  A
N66         Co75   2.098   1_545  S
C67          C81   1.459       .  S
C67        C1152   1.462       .  S
C67          N71   1.344       .  A
C68          C87   1.464       .  S
C68          H72   1.081       .  S
N69          C80   1.334       .  A
N69         Co79   2.056   1_645  S
C73          C85   1.458       .  S
C73         C945   1.479       .  S
C73          N89   1.352       .  A
Co75        Cl86   2.429       .  S
N76          C87   1.342       .  A
C77         C970   1.473       .  S
Co79        Cl86   2.459       .  S
C87         C987   1.465       .  S
C90          C91   1.397       .  A
C90          C95   1.406       .  A
C90         C928   1.487       .  S
C91          C92   1.393       .  A
C91          H96   1.082       .  S
C92          C93   1.404       .  A
C92         C984   1.479       .  S
C93          C94   1.408       .  A
C93          H97   1.082       .  S
C94          C95   1.410       .  A
C94         C914   1.496       .  S
C95          H98   1.080       .  S
C99         C100   1.400       .  A
C99         C104   1.404       .  A
C99         C973   1.481       .  S
C100        C101   1.399       .  A
C100        H105   1.083       .  S
C101        C102   1.401       .  A
C101        C900   1.476       .  S
C102        C103   1.406       .  A
C102        H106   1.084       .  S
C103        C104   1.401       .  A
C103        C886   1.484       .  S
C104        H107   1.083       .  S
C108        C109   1.408       .  A
C108        C113   1.413       .  A
C108        C861   1.495       .  S
C109        C110   1.405       .  A
C109        H114   1.083       .  S
C110        C111   1.395       .  A
C110        C956   1.482       .  S
C111        C112   1.397       .  A
C111        H115   1.085       .  S
C112        C113   1.405       .  A
C112        C872   1.478       .  S
C113        H116   1.083       .  S
C117        C118   1.411       .  A
C117        C122   1.412       .  A
C117        C830   1.498       .  S
C118        C119   1.400       .  A
C118        H123   1.083       .  S
C119        C120   1.396       .  A
C119        C942   1.484       .  S
C120        C121   1.405       .  A
C120        H124   1.084       .  S
C121        C122   1.406       .  A
C121        C847   1.491       .  S
C122        H125   1.078       .  S
C126        C163   1.454       .  S
C126       C1141   1.461       .  S
C126        N144   1.347       .  A
N127        N144   1.323       .  A
N127        N149   1.321       .  A
N127       Co164   2.085       .  S
C128        C166   1.470       .  S
C128        H173   1.081       .  S
C128        N153   1.347       .  A
H129        C170   1.082       .  S
C130        C134   1.449       .  S
C130        H159   1.082       .  S
C130        N154   1.331       .  A
Co131       N149   2.068       .  S
Co131       N139   2.080       .  S
Co131       N171   2.082       .  S
Co131       N147   2.068       .  S
Co131      Cl175   2.461       .  S
N132        C170   1.334       .  A
N132        N139   1.316       .  A
N132       Co133   2.069       .  S
Co133       N136   2.108       .  S
Co133       N153   2.119       .  S
Co133       N140   2.077       .  S
Co133      Cl175   2.428       .  S
C134       C1026   1.469       .  S
C134        N172   1.354       .  A
N135        N142   1.315       .  A
N135        N165   1.329       .  A
N135       Co168   2.089       .  S
N136        N154   1.322       .  A
N136        N172   1.327       .  A
N137        C166   1.344       .  A
N137        N147   1.322       .  A
H138        C163   1.081       .  S
N139        N160   1.327       .  A
N140        N158   1.317       .  A
N140        N145   1.320       .  A
C141        C169   1.458       .  S
C141        C844   1.474       .  S
C141        N145   1.350       .  A
N142        C157   1.331       .  A
N142       Co164   2.059       .  S
C143        C146   1.470       .  S
C143        H177   1.079       .  S
C143        N171   1.344       .  A
C146       C1071   1.487       .  S
C146        N167   1.349       .  A
N147        N153   1.323       .  A
N148        C174   1.339       .  A
N148        N150   1.321       .  A
N148       Co164   2.089       .  S
N149        C163   1.336       .  A
N150        N178   1.321       .  A
N150       Co168   2.062       .  S
H151        C174   1.082       .  S
H152        C169   1.081       .  S
N154       Co168   2.056       .  S
N155        N167   1.317       .  A
N155        N171   1.315       .  A
N155       Co164   2.062       .  S
C156        C170   1.457       .  S
C156        C903   1.473       .  S
C156        N160   1.352       .  A
C157        C176   1.457       .  S
C157        H161   1.081       .  S
N158        C169   1.343       .  A
N158       Co168   2.070       .  S
C162        C174   1.459       .  S
C162        C931   1.463       .  S
C162        N178   1.344       .  A
Co164      Cl175   2.427       .  S
N165        C176   1.355       .  A
C166        C875   1.478       .  S
Co168      Cl175   2.462       .  S
C176       C1099   1.484       .  S
N179        C184   1.352       .  A
N179        C183   1.353       .  A
N179        H211   1.036       .  S
N180        C187   1.354       .  A
N180        C188   1.352       .  A
N181        C186   1.353       .  A
N181        C185   1.350       .  A
N181        H212   1.039       .  S
N182        C189   1.349       .  A
N182        C190   1.350       .  A
C183        C191   1.388       .  A
C183        C199   1.417   1_565  A
C184        C200   1.414       .  A
C184        C192   1.386       .  A
C185        C193   1.387       .  A
C185        C202   1.412   1_565  A
C186        C201   1.413       .  A
C186        C194   1.386       .  A
C187        C199   1.416       .  A
C187        C195   1.386       .  A
C188        C202   1.417       .  A
C188        C196   1.387       .  A
C189        C197   1.386       .  A
C189        C200   1.409       .  A
C190        C198   1.387       .  A
C190        C201   1.411       .  A
C191        C192   1.374       .  A
C191        H203   1.081       .  S
C192        H204   1.082       .  S
C193        C194   1.377       .  A
C193        H205   1.082       .  S
C194        H206   1.082       .  S
C195        C196   1.370       .  A
C195        H207   1.081       .  S
C196        H208   1.082       .  S
C197        C198   1.371       .  A
C197        H209   1.082       .  S
C198        H210   1.082       .  S
C199        C805   1.489       .  S
C200        C816   1.482       .  S
C201       C1040   1.488       .  S
C202        C889   1.489       .  S
N213        C218   1.354       .  A
N213        C217   1.352       .  A
N213        H245   1.032   1_554  S
N214        C221   1.349       .  A
N214        C222   1.351       .  A
N215        C220   1.352       .  A
N215        C219   1.354       .  A
N215        H246   1.030       .  S
N216        C223   1.350       .  A
N216        C224   1.349       .  A
C217        C225   1.387       .  A
C217        C233   1.417   1_455  A
C218        C234   1.420       .  A
C218        C226   1.388       .  A
C219        C227   1.388       .  A
C219        C236   1.422   1_455  A
C220        C235   1.419       .  A
C220        C228   1.387       .  A
C221        C233   1.416   1_556  A
C221        C229   1.387       .  A
C222        C236   1.418       .  A
C222        C230   1.387       .  A
C223        C231   1.387       .  A
C223        C234   1.415   1_556  A
C224        C232   1.387       .  A
C224        C235   1.416       .  A
C225        C226   1.373       .  A
C225        H237   1.081       .  S
C226        H238   1.082       .  S
C227        C228   1.376       .  A
C227        H239   1.082   1_455  S
C228        H240   1.081       .  S
C229        C230   1.370       .  A
C229        H241   1.082       .  S
C230        H242   1.082       .  S
C231        C232   1.369       .  A
C231        H243   1.082       .  S
C232        H244   1.082       .  S
C233       C1001   1.481       .  S
C234        C917   1.488       .  S
C235        C774   1.485       .  S
C236        C788   1.490       .  S
N247        C252   1.351       .  A
N247        C251   1.349   1_455  A
N247        H279   1.039       .  S
N248        C255   1.349       .  A
N248        C256   1.349       .  A
N249        C254   1.352       .  A
N249        C253   1.356   1_455  A
N249        H280   1.035       .  S
N250        C257   1.355       .  A
N250        C258   1.353       .  A
C251        C259   1.387       .  A
C251        C267   1.409       .  A
C252        C268   1.409       .  A
C252        C260   1.386       .  A
C253        C261   1.385   1_655  A
C253        C270   1.418       .  A
C254        C269   1.420       .  A
C254        C262   1.389       .  A
C255        C267   1.406       .  A
C255        C263   1.385       .  A
C256        C270   1.412       .  A
C256        C264   1.387       .  A
C257        C265   1.384       .  A
C257        C268   1.416       .  A
C258        C266   1.390       .  A
C258        C269   1.422       .  A
C259        C260   1.375   1_655  A
C259        H271   1.082       .  S
C260        H272   1.082       .  S
C261        C262   1.379       .  A
C261        H273   1.082   1_455  S
C262        H274   1.081       .  S
C263        C264   1.369       .  A
C263        H275   1.082       .  S
C264        H276   1.082       .  S
C265        C266   1.368       .  A
C265        H277   1.082       .  S
C266        H278   1.081       .  S
C267       C1127   1.475       .  S
C268        C858   1.493       .  S
C269        C746   1.488       .  S
C270        C760   1.492       .  S
N281        C286   1.352       .  A
N281        C285   1.353       .  A
N281        H313   1.008       .  S
N282        C289   1.354       .  A
N282        C290   1.351       .  A
N283        C288   1.357       .  A
N283        C287   1.354       .  A
N283        H314   1.019   1_554  S
N284        C291   1.350       .  A
N284        C292   1.349       .  A
C285        C293   1.388       .  A
C285        C301   1.418   1_565  A
C286        C302   1.417       .  A
C286        C294   1.387       .  A
C287        C295   1.388       .  A
C287        C304   1.420   1_565  A
C288        C303   1.421       .  A
C288        C296   1.386       .  A
C289        C301   1.417       .  A
C289        C297   1.385       .  A
C290        C304   1.419   1_556  A
C290        C298   1.389       .  A
C291        C299   1.386       .  A
C291        C302   1.412       .  A
C292        C300   1.387       .  A
C292        C303   1.413   1_556  A
C293        C294   1.374       .  A
C293        H305   1.082   1_565  S
C294        H306   1.082       .  S
C295        C296   1.377       .  A
C295        H307   1.081   1_565  S
C296        H308   1.082       .  S
C297        C298   1.368       .  A
C297        H309   1.082       .  S
C298        H310   1.082   1_556  S
C299        C300   1.369       .  A
C299        H311   1.082       .  S
C300        H312   1.083       .  S
C301        C721   1.487       .  S
C302        C735   1.480       .  S
C303       C1085   1.492       .  S
C304        C833   1.487       .  S
C315        C316   1.401       .  A
C315        C320   1.401       .  A
C315        C690   1.481       .  S
C316        C317   1.405       .  A
C316        H321   1.083       .  S
C317        C318   1.407       .  A
C317        C732   1.490       .  S
C318        C319   1.403       .  A
C318        H322   1.082       .  S
C319        C320   1.403       .  A
C319        C707   1.486       .  S
C320        H323   1.083       .  S
C324        C325   1.402       .  A
C324        C329   1.397       .  A
C324        C676   1.479       .  S
C325        C326   1.410       .  A
C325        H330   1.083       .  S
C326        C327   1.412       .  A
C326        C791   1.502       .  S
C327        C328   1.408       .  A
C327        H331   1.080       .  S
C328        C329   1.401       .  A
C328        C662   1.489       .  S
C329        H332   1.083       .  S
C333        C334   1.415       .  A
C333        C338   1.414       .  A
C333        C718   1.506       .  S
C334        C335   1.405       .  A
C334        H339   1.082       .  S
C335        C336   1.394       .  A
C335        C634   1.481       .  S
C336        C337   1.398       .  A
C336        H340   1.084       .  S
C337        C338   1.403       .  A
C337        C651   1.482       .  S
C338        H341   1.081       .  S
C342        C343   1.396       .  A
C342        C347   1.400       .  A
C342        C620   1.474       .  S
C343        C344   1.404       .  A
C343        H348   1.084       .  S
C344        C345   1.408       .  A
C344        C606   1.489       .  S
C345        C346   1.414       .  A
C345        H349   1.082       .  S
C346        C347   1.408       .  A
C346        C777   1.500       .  S
C347        H350   1.080       .  S
C351        C352   1.408       .  A
C351        C356   1.418       .  A
C351        C749   1.507       .  S
C352        C353   1.400       .  A
C352        H357   1.081       .  S
C353        C354   1.397       .  A
C353        C592   1.482       .  S
C354        C355   1.405       .  A
C354        H358   1.084       .  S
C355        C356   1.409       .  A
C355        C578   1.499       .  S
C356        H359   1.077       .  S
C360        C361   1.402       .  A
C360        C365   1.394       .  A
C360        C553   1.474       .  S
C361        C362   1.408       .  A
C361        H366   1.081       .  S
C362        C363   1.412       .  A
C362        C802   1.501       .  S
C363        C364   1.406       .  A
C363        H367   1.079       .  S
C364        C365   1.396       .  A
C364        C564   1.486       .  S
C365        H368   1.083       .  S
C369        C406   1.469       .  S
C369        C609   1.481       .  S
C369        N387   1.346       .  A
N370        N387   1.320       .  A
N370        N392   1.318       .  A
N370       Co407   2.065       .  S
C371        C409   1.456       .  S
C371        H416   1.082       .  S
C371        N396   1.332       .  A
H372        C413   1.081       .  S
C373        C377   1.474       .  S
C373        H402   1.080       .  S
C373        N397   1.346       .  A
Co374       N392   2.099       .  S
Co374       N382   2.074       .  S
Co374       N414   2.068       .  S
Co374       N390   2.103       .  S
Co374      Cl418   2.461       .  S
N375        C413   1.339       .  A
N375        N382   1.322       .  A
N375       Co376   2.088       .  S
Co376       N379   2.065       .  S
Co376       N396   2.060       .  S
Co376       N383   2.094       .  S
Co376      Cl418   2.430       .  S
C377        C536   1.488       .  S
C377        N415   1.347       .  A
N378        N385   1.321       .  A
N378        N408   1.319       .  A
N378       Co411   2.055       .  S
N379        N397   1.316       .  A
N379        N415   1.318       .  A
N380        C409   1.356       .  A
N380        N390   1.330       .  A
H381        C406   1.081       .  S
N382        N403   1.323       .  A
N383        N401   1.318       .  A
N383        N388   1.325       .  A
C384        C412   1.450       .  S
C384        C550   1.468       .  S
C384        N388   1.354       .  A
N385        C400   1.344       .  A
N385       Co407   2.104       .  S
C386        C389   1.451       .  S
C386        H420   1.081       .  S
C386        N414   1.335       .  A
C389        C637   1.470       .  S
C389        N410   1.352       .  A
N390        N396   1.317       .  A
N391        C417   1.338       .  A
N391        N393   1.317       .  A
N391       Co407   2.068       .  S
N392        C406   1.347       .  A
N393        N421   1.323       .  A
N393       Co411   2.080       .  S
H394        C417   1.081       .  S
H395        C412   1.081       .  S
N397       Co411   2.091       .  S
N398        N410   1.328       .  A
N398        N414   1.322       .  A
N398       Co407   2.104       .  S
C399        C413   1.455       .  S
C399        C693   1.465       .  S
C399        N403   1.348       .  A
C400        C419   1.466       .  S
C400        H404   1.080       .  S
N401        C412   1.331       .  A
N401       Co411   2.050       .  S
C405        C417   1.458       .  S
C405        C595   1.471       .  S
C405        N421   1.351       .  A
Co407      Cl418   2.438       .  S
N408        C419   1.342       .  A
C409        C679   1.477       .  S
Co411      Cl418   2.456       .  S
C419        C522   1.471       .  S
C422        C423   1.400       .  A
C422        C427   1.400       .  A
C422        C539   1.477       .  S
C423        C424   1.406       .  A
C423        H428   1.083       .  S
C424        C425   1.410       .  A
C424        C763   1.493       .  S
C425        C426   1.410       .  A
C425        H429   1.083       .  S
C426        C427   1.405       .  A
C426        C508   1.493       .  S
C427        H430   1.082       .  S
C431        C432   1.394       .  A
C431        C436   1.403       .  A
C431        C494   1.477       .  S
C432        C433   1.394       .  A
C432        H437   1.084       .  S
C433        C434   1.404       .  A
C433        C525   1.478       .  S
C434        C435   1.411       .  A
C434        H438   1.082       .  S
C435        C436   1.409       .  A
C435        C819   1.492       .  S
C436        H439   1.082       .  S
C440        C477   1.460       .  S
C440        C704   1.466       .  S
C440        N458   1.347       .  A
N441        N458   1.321       .  A
N441        N463   1.320       .  A
N441       Co478   2.080   1_655  S
C442        C480   1.469       .  S
C442        H487   1.080       .  S
C442        N467   1.344       .  A
H443        C484   1.081       .  S
C444        C448   1.452       .  S
C444        H473   1.082       .  S
C444        N468   1.335       .  A
Co445       N463   2.083   1_455  S
Co445       N453   2.072   1_465  S
Co445       N485   2.075       .  S
Co445       N461   2.075   1_565  S
Co445      Cl489   2.462       .  S
N446        C484   1.339       .  A
N446        N453   1.317       .  A
N446       Co447   2.083   1_655  S
Co447       N450   2.095   1_455  S
Co447       N467   2.104       .  S
Co447       N454   2.082       .  S
Co447      Cl489   2.432   1_545  S
C448        C567   1.465       .  S
C448        N486   1.350       .  A
N449        N456   1.317       .  A
N449        N479   1.328       .  A
N449       Co482   2.092   1_655  S
N450        N468   1.323       .  A
N450        N486   1.324       .  A
N451        C480   1.347       .  A
N451        N461   1.322       .  A
H452        C477   1.082       .  S
N453        N474   1.325       .  A
N454        N472   1.319       .  A
N454        N459   1.321       .  A
C455        C483   1.462       .  S
C455        C581   1.480       .  S
C455        N459   1.349       .  A
N456        C471   1.335       .  A
N456       Co478   2.067   1_655  S
C457        C460   1.462       .  S
C457        H491   1.081       .  S
C457        N485   1.343       .  A
C460        C623   1.479       .  S
C460        N481   1.350       .  A
N461        N467   1.321       .  A
N462        C488   1.338       .  A
N462        N464   1.321       .  A
N462       Co478   2.085       .  S
N463        C477   1.342       .  A
N464        N492   1.320       .  A
N464       Co482   2.066       .  S
H465        C488   1.081       .  S
H466        C483   1.082       .  S
N468       Co482   2.067   1_645  S
N469        N481   1.320       .  A
N469        N485   1.315       .  A
N469       Co478   2.073       .  S
C470        C484   1.463       .  S
C470        C665   1.482       .  S
C470        N474   1.349       .  A
C471        C490   1.455       .  S
C471        H475   1.082       .  S
N472        C483   1.345       .  A
N472       Co482   2.082   1_545  S
C476        C488   1.459       .  S
C476        C497   1.462       .  S
C476        N492   1.345       .  A
Co478      Cl489   2.429       .  S
N479        C490   1.355       .  A
C480        C648   1.483       .  S
Co482      Cl489   2.466       .  S
C490        C511   1.473       .  S
C493        C494   1.406       .  A
C493        C498   1.392       .  A
C493        H500   1.084       .  S
C494        C495   1.409       .  A
C495        C496   1.399       .  A
C495        N502   1.430       .  S
C496        C497   1.403       .  A
C496        H501   1.084       .  S
C497        C498   1.405       .  A
C498        N499   1.430       .  S
N499        O503   1.262       .  A
N499        O504   1.262       .  A
N502        O506   1.262       .  A
N502        O505   1.262       .  A
C507        C508   1.405       .  A
C507        C512   1.398       .  A
C507        H514   1.083       .  S
C508        C509   1.419       .  A
C509        C510   1.406       .  A
C509        N516   1.431       .  S
C510        C511   1.399       .  A
C510        H515   1.084       .  S
C511        C512   1.409       .  A
C512        N513   1.430       .  S
N513        O517   1.262       .  A
N513        O518   1.262   1_655  A
N516        O520   1.262       .  A
N516        O519   1.262       .  A
C521        C522   1.399       .  A
C521        C526   1.398       .  A
C521        H528   1.082       .  S
C522        C523   1.413       .  A
C523        C524   1.397       .  A
C523        N530   1.429       .  S
C524        C525   1.400       .  A
C524        H529   1.084       .  S
C525        C526   1.415       .  A
C526        N527   1.431       .  S
N527        O531   1.262       .  A
N527        O532   1.262       .  A
N530        O534   1.262       .  A
N530        O533   1.262       .  A
C535        C536   1.409       .  A
C535        C540   1.396       .  A
C535        H542   1.084       .  S
C536        C537   1.415       .  A
C537        C538   1.405       .  A
C537        N544   1.427       .  S
C538        C539   1.402       .  A
C538        H543   1.084       .  S
C539        C540   1.405       .  A
C540        N541   1.430       .  S
N541        O545   1.262       .  A
N541        O546   1.262       .  A
N544        O548   1.262       .  A
N544        O547   1.262       .  A
C549        C550   1.400       .  A
C549        C554   1.397       .  A
C549        H556   1.084       .  S
C550        C551   1.413       .  A
C551        C552   1.394       .  A
C551        N558   1.430       .  S
C552        C553   1.399       .  A
C552        H557   1.084       .  S
C553        C554   1.412       .  A
C554        N555   1.430       .  S
N555        O559   1.262       .  A
N555        O560   1.262       .  A
N558        O562   1.262       .  A
N558        O561   1.262       .  A
C563        C564   1.408       .  A
C563        C568   1.393       .  A
C563        H570   1.083       .  S
C564        C565   1.413       .  A
C565        C566   1.399       .  A
C565        N572   1.432       .  S
C566        C567   1.402       .  A
C566        H571   1.084       .  S
C567        C568   1.404       .  A
C568        N569   1.428       .  S
N569        O573   1.261       .  A
N569        O574   1.262       .  A
N572        O576   1.262       .  A
N572        O575   1.262       .  A
C577        C578   1.406       .  A
C577        C582   1.388       .  A
C577        H584   1.083       .  S
C578        C579   1.419       .  A
C579        C580   1.412       .  A
C579        N586   1.430       .  S
C580        C581   1.406       .  A
C580        H585   1.083       .  S
C581        C582   1.401       .  A
C582        N583   1.423       .  S
N583        O587   1.261       .  A
N583        O588   1.262       .  A
N586        O590   1.262       .  A
N586        O589   1.262       .  A
C591        C592   1.406       .  A
C591        C596   1.398       .  A
C591        H598   1.084       .  S
C592        C593   1.412       .  A
C593        C594   1.399       .  A
C593        N600   1.431       .  S
C594        C595   1.402       .  A
C594        H599   1.084       .  S
C595        C596   1.408       .  A
C596        N597   1.430       .  S
N597        O601   1.262       .  A
N597        O602   1.262       .  A
N600        O604   1.262       .  A
N600        O603   1.263       .  A
C605        C606   1.403       .  A
C605        C610   1.394       .  A
C605        H612   1.084       .  S
C606        C607   1.414       .  A
C607        C608   1.407       .  A
C607        N614   1.429       .  S
C608        C609   1.405       .  A
C608        H613   1.083       .  S
C609        C610   1.411       .  A
C610        N611   1.429       .  S
N611        O615   1.262       .  A
N611        O616   1.262       .  A
N614        O618   1.262       .  A
N614        O617   1.262       .  A
C619        C620   1.403       .  A
C619        C624   1.406       .  A
C619        H626   1.084       .  S
C620        C621   1.409       .  A
C621        C622   1.393       .  A
C621        N628   1.433       .  S
C622        C623   1.402       .  A
C622        H627   1.084       .  S
C623        C624   1.413       .  A
C624        N625   1.428       .  S
N625        O629   1.262       .  A
N625        O630   1.262       .  A
N628        O632   1.262       .  A
N628        O631   1.262       .  A
C633        C634   1.402       .  A
C633        C638   1.397       .  A
C633        H640   1.084       .  S
C634        C635   1.414       .  A
C635        C636   1.403       .  A
C635        N642   1.429       .  S
C636        C637   1.399       .  A
C636        H641   1.084       .  S
C637        C638   1.407       .  A
C638        N639   1.427       .  S
N639        O643   1.259       .  A
N639        O644   1.262       .  A
N642        O646   1.262       .  A
N642        O645   1.262       .  A
C647        C648   1.407       .  A
C647        C652   1.403       .  A
C647        H654   1.084       .  S
C648        C649   1.412       .  A
C649        C650   1.398       .  A
C649        N656   1.430       .  S
C650        C651   1.399       .  A
C650        H655   1.084       .  S
C651        C652   1.410       .  A
C652        N653   1.431       .  S
N653        O657   1.262       .  A
N653        O658   1.262       .  A
N656        O660   1.262       .  A
N656        O659   1.262       .  A
C661        C662   1.405       .  A
C661        C666   1.404       .  A
C661        H668   1.084       .  S
C662        C663   1.416       .  A
C663        C664   1.396       .  A
C663        N670   1.431       .  S
C664        C665   1.399       .  A
C664        H669   1.081       .  S
C665        C666   1.413       .  A
C666        N667   1.428       .  S
N667        O671   1.262       .  A
N667        O672   1.262       .  A
N670        O674   1.262       .  A
N670        O673   1.262       .  A
C675        C676   1.404       .  A
C675        C680   1.404       .  A
C675        H682   1.084       .  S
C676        C677   1.408       .  A
C677        C678   1.395       .  A
C677        N684   1.430       .  S
C678        C679   1.404       .  A
C678        H683   1.084       .  S
C679        C680   1.408       .  A
C680        N681   1.426       .  S
N681        O685   1.262       .  A
N681        O686   1.262       .  A
N684        O688   1.262       .  A
N684        O687   1.262       .  A
C689        C690   1.405       .  A
C689        C694   1.398       .  A
C689        H696   1.084       .  S
C690        C691   1.414       .  A
C691        C692   1.400       .  A
C691        N698   1.433       .  S
C692        C693   1.399       .  A
C692        H697   1.084       .  S
C693        C694   1.406       .  A
C694        N695   1.430       .  S
N695        O699   1.262       .  A
N695        O700   1.262       .  A
N698        O702   1.262       .  A
N698        O701   1.262       .  A
C703        C704   1.398       .  A
C703        C708   1.397       .  A
C703        H710   1.084       .  S
C704        C705   1.406       .  A
C705        C706   1.401       .  A
C705        N712   1.430       .  S
C706        C707   1.408       .  A
C706        H711   1.083       .  S
C707        C708   1.416       .  A
C708        N709   1.433       .  S
N709        O713   1.262       .  A
N709        O714   1.262       .  A
N712        O716   1.262       .  A
N712        O715   1.262       .  A
C717        C718   1.415       .  A
C717        C722   1.404       .  A
C717        H724   1.081       .  S
C718        C719   1.423       .  A
C719        C720   1.398       .  A
C719        N726   1.431       .  S
C720        C721   1.396       .  A
C720        H725   1.084       .  S
C721        C722   1.404       .  A
C722        N723   1.430       .  S
N723        O727   1.262       .  A
N723        O728   1.262       .  A
N726        O730   1.262       .  A
N726        O729   1.263       .  A
C731        C732   1.410       .  A
C731        C736   1.398       .  A
C731        H738   1.083       .  S
C732        C733   1.418       .  A
C733        C734   1.398       .  A
C733        N740   1.432       .  S
C734        C735   1.398       .  A
C734        H739   1.084       .  S
C735        C736   1.403       .  A
C736        N737   1.430       .  S
N737        O741   1.262       .  A
N737        O742   1.262       .  A
N740        O744   1.262       .  A
N740        O743   1.262       .  A
C745        C746   1.397       .  A
C745        C750   1.398       .  A
C745        H752   1.084       .  S
C746        C747   1.406       .  A
C747        C748   1.402       .  A
C747        N754   1.430       .  S
C748        C749   1.414       .  A
C748        H753   1.081       .  S
C749        C750   1.425       .  A
C750        N751   1.432       .  S
N751        O755   1.262       .  A
N751        O756   1.263       .  A
N754        O758   1.262       .  A
N754        O757   1.262       .  A
C759        C760   1.403       .  A
C759        C764   1.400       .  A
C759        H766   1.084       .  S
C760        C761   1.407       .  A
C761        C762   1.403       .  A
C761        N768   1.429   1_655  S
C762        C763   1.409       .  A
C762        H767   1.083       .  S
C763        C764   1.415       .  A
C764        N765   1.431       .  S
N765        O769   1.262       .  A
N765        O770   1.262       .  A
N768        O772   1.262       .  A
N768        O771   1.262       .  A
C773        C774   1.396       .  A
C773        C778   1.400       .  A
C773        H780   1.084       .  S
C774        C775   1.408       .  A
C775        C776   1.399       .  A
C775        N782   1.433       .  S
C776        C777   1.409       .  A
C776        H781   1.083       .  S
C777        C778   1.423       .  A
C778        N779   1.428       .  S
N779        O783   1.261       .  A
N779        O784   1.263       .  A
N782        O786   1.262       .  A
N782        O785   1.263       .  A
C787        C788   1.399       .  A
C787        C792   1.404       .  A
C787        H794   1.084   1_655  S
C788        C789   1.407       .  A
C789        C790   1.399       .  A
C789        N796   1.432       .  S
C790        C791   1.410       .  A
C790        H795   1.083       .  S
C791        C792   1.422       .  A
C792        N793   1.431       .  S
N793        O797   1.262       .  A
N793        O798   1.262   1_655  A
N796        O800   1.262       .  A
N796        O799   1.262       .  A
C801        C802   1.410       .  A
C801        C806   1.400       .  A
C801        H808   1.082       .  S
C802        C803   1.422       .  A
C803        C804   1.401       .  A
C803        N810   1.431       .  S
C804        C805   1.399       .  A
C804        H809   1.084       .  S
C805        C806   1.408       .  A
C806        N807   1.432   1_545  S
N807        O811   1.262       .  A
N807        O812   1.262       .  A
N810        O814   1.262       .  A
N810        O813   1.262       .  A
C815        C816   1.399       .  A
C815        C820   1.398       .  A
C815        H822   1.084       .  S
C816        C817   1.404       .  A
C817        C818   1.400       .  A
C817        N824   1.430       .  S
C818        C819   1.411       .  A
C818        H823   1.083       .  S
C819        C820   1.417       .  A
C820        N821   1.431       .  S
N821        O825   1.262       .  A
N821        O826   1.262       .  A
N824        O828   1.262       .  A
N824        O827   1.262       .  A
C829        C830   1.409       .  A
C829        C834   1.395       .  A
C829        H836   1.083       .  S
C830        C831   1.421       .  A
C831        C832   1.403       .  A
C831        N838   1.431       .  S
C832        C833   1.400       .  A
C832        H837   1.084       .  S
C833        C834   1.407       .  A
C834        N835   1.430       .  S
N835        O839   1.262       .  A
N835        O840   1.262   1_545  A
N838        O842   1.262       .  A
N838        O841   1.262       .  A
C843        C844   1.406       .  A
C843        C848   1.410       .  A
C843        H850   1.083       .  S
C844        C845   1.399       .  A
C845        C846   1.384       .  A
C845        N852   1.423       .  S
C846        C847   1.403       .  A
C846        H851   1.079       .  S
C847        C848   1.417       .  A
C848        N849   1.430       .  S
N849        O853   1.262       .  A
N849        O854   1.262       .  A
N852        O856   1.262       .  A
N852        O855   1.261       .  A
C857        C858   1.400       .  A
C857        C862   1.400       .  A
C857        H864   1.084       .  S
C858        C859   1.410       .  A
C859        C860   1.402       .  A
C859        N866   1.429       .  S
C860        C861   1.407       .  A
C860        H865   1.083       .  S
C861        C862   1.419       .  A
C862        N863   1.431       .  S
N863        O867   1.262       .  A
N863        O868   1.263       .  A
N866        O870   1.262       .  A
N866        O869   1.262       .  A
C871        C872   1.400       .  A
C871        C876   1.396       .  A
C871        H878   1.085       .  S
C872        C873   1.406       .  A
C873        C874   1.405       .  A
C873        N880   1.428       .  S
C874        C875   1.409       .  A
C874        H879   1.084       .  S
C875        C876   1.407       .  A
C876        N877   1.427       .  S
N877        O881   1.261       .  A
N877        O882   1.262       .  A
N880        O884   1.261       .  A
N880        O883   1.262       .  A
C885        C886   1.404       .  A
C885        C890   1.397       .  A
C885        H892   1.084       .  S
C886        C887   1.414       .  A
C887        C888   1.399       .  A
C887        N894   1.430       .  S
C888        C889   1.403       .  A
C888        H893   1.084       .  S
C889        C890   1.410       .  A
C890        N891   1.430       .  S
N891        O895   1.262       .  A
N891        O896   1.262       .  A
N894        O898   1.262       .  A
N894        O897   1.262       .  A
C899        C900   1.403       .  A
C899        C904   1.401       .  A
C899        H906   1.084       .  S
C900        C901   1.410       .  A
C901        C902   1.395       .  A
C901        N908   1.430       .  S
C902        C903   1.403       .  A
C902        H907   1.084       .  S
C903        C904   1.406       .  A
C904        N905   1.425       .  S
N905        O909   1.262       .  A
N905        O910   1.262       .  A
N908        O912   1.262       .  A
N908        O911   1.262       .  A
C913        C914   1.412       .  A
C913        C918   1.402       .  A
C913        H920   1.083       .  S
C914        C915   1.418       .  A
C915        C916   1.397       .  A
C915        N922   1.432       .  S
C916        C917   1.400       .  A
C916        H921   1.084       .  S
C917        C918   1.406       .  A
C918        N919   1.432       .  S
N919        O923   1.262       .  A
N919        O924   1.262       .  A
N922        O926   1.262       .  A
N922        O925   1.262       .  A
C927        C928   1.406       .  A
C927        C932   1.397       .  A
C927        H934   1.083       .  S
C928        C929   1.419       .  A
C929        C930   1.396       .  A
C929        N936   1.434       .  S
C930        C931   1.396       .  A
C930        H935   1.084       .  S
C931        C932   1.407       .  A
C932        N933   1.430       .  S
N933        O937   1.262       .  A
N933        O938   1.262       .  A
N936        O940   1.262       .  A
N936        O939   1.263       .  A
C941        C942   1.404       .  A
C941        C946   1.404       .  A
C941        H948   1.084       .  S
C942        C943   1.414       .  A
C943        C944   1.396       .  A
C943        N950   1.432       .  S
C944        C945   1.400       .  A
C944        H949   1.083       .  S
C945        C946   1.412       .  A
C946        N947   1.428       .  S
N947        O951   1.262       .  A
N947        O952   1.262       .  A
N950        O954   1.262       .  A
N950        O953   1.263       .  A
C955        C956   1.409       .  A
C955        C960   1.400       .  A
C955        H962   1.084       .  S
C956        C957   1.411       .  A
C957        C958   1.395       .  A
C957        N964   1.433       .  S
C958        C959   1.401       .  A
C958        H963   1.084       .  S
C959        C960   1.405       .  A
C960        N961   1.430       .  S
N961        O965   1.262       .  A
N961        O966   1.262       .  A
N964        O968   1.262       .  A
N964        O967   1.262       .  A
C969        C970   1.400       .  A
C969        C974   1.395       .  A
C969        H976   1.082       .  S
C970        C971   1.410       .  A
C971        C972   1.398       .  A
C971        N978   1.429       .  S
C972        C973   1.405       .  A
C972        H977   1.084       .  S
C973        C974   1.414       .  A
C974        N975   1.431       .  S
N975        O979   1.262       .  A
N975        O980   1.262       .  A
N978        O982   1.262       .  A
N978        O981   1.262       .  A
C983        C984   1.408       .  A
C983        C988   1.398       .  A
C983        H990   1.084       .  S
C984        C985   1.409       .  A
C985        C986   1.394       .  A
C985        N992   1.431       .  S
C986        C987   1.402       .  A
C986        H991   1.084       .  S
C987        C988   1.405       .  A
C988        N989   1.430       .  S
N989        O993   1.262       .  A
N989        O994   1.262       .  A
N992        O996   1.262       .  A
N992        O995   1.262       .  A
C997        C998   1.415       .  A
C997       C1002   1.404       .  A
C997       H1004   1.082       .  S
C998        C999   1.421       .  A
C999       C1000   1.394       .  A
C999       N1006   1.430       .  S
C1000      C1001   1.394       .  A
C1000      H1005   1.085       .  S
C1001      C1002   1.404       .  A
C1002      N1003   1.431   1_655  S
N1003      O1007   1.262       .  A
N1003      O1008   1.262       .  A
N1006      O1010   1.261       .  A
N1006      O1009   1.263       .  A
C1011      C1012   1.403       .  A
C1011      C1016   1.399       .  A
C1011      H1018   1.084       .  S
C1012      C1013   1.405       .  A
C1013      C1014   1.393       .  A
C1013      N1020   1.429       .  S
C1014      C1015   1.408       .  A
C1014      H1019   1.084       .  S
C1015      C1016   1.412       .  A
C1016      N1017   1.431       .  S
N1017      O1021   1.262       .  A
N1017      O1022   1.262       .  A
N1020      O1024   1.262       .  A
N1020      O1023   1.262       .  A
C1025      C1026   1.402       .  A
C1025      C1030   1.395       .  A
C1025      H1032   1.084       .  S
C1026      C1027   1.406       .  A
C1027      C1028   1.400       .  A
C1027      N1034   1.430       .  S
C1028      C1029   1.407       .  A
C1028      H1033   1.084       .  S
C1029      C1030   1.410       .  A
C1030      N1031   1.432       .  S
N1031      O1035   1.262       .  A
N1031      O1036   1.262       .  A
N1034      O1038   1.262       .  A
N1034      O1037   1.262       .  A
C1039      C1040   1.403       .  A
C1039      C1044   1.399       .  A
C1039      H1046   1.084       .  S
C1040      C1041   1.408       .  A
C1041      C1042   1.400       .  A
C1041      N1048   1.429       .  S
C1042      C1043   1.406       .  A
C1042      H1047   1.084       .  S
C1043      C1044   1.413       .  A
C1044      N1045   1.429       .  S
N1045      O1049   1.262       .  A
N1045      O1050   1.262       .  A
N1048      O1052   1.262       .  A
N1048      O1051   1.262       .  A
C1053      C1054   1.402       .  A
C1053      C1058   1.391       .  A
C1053      H1060   1.084       .  S
C1054      C1055   1.413       .  A
C1055      C1056   1.408       .  A
C1055      N1062   1.428       .  S
C1056      C1057   1.407       .  A
C1056      H1061   1.084       .  S
C1057      C1058   1.411       .  A
C1058      N1059   1.431       .  S
N1059      O1063   1.262       .  A
N1059      O1064   1.262       .  A
N1062      O1066   1.262       .  A
N1062      O1065   1.262       .  A
C1067      C1068   1.401       .  A
C1067      C1072   1.405       .  A
C1067      H1074   1.084       .  S
C1068      C1069   1.407       .  A
C1069      C1070   1.394       .  A
C1069      N1076   1.435       .  S
C1070      C1071   1.407       .  A
C1070      H1075   1.083       .  S
C1071      C1072   1.415       .  A
C1072      N1073   1.427       .  S
N1073      O1077   1.262       .  A
N1073      O1078   1.262       .  A
N1076      O1080   1.262       .  A
N1076      O1079   1.262       .  A
C1081      C1082   1.410       .  A
C1081      C1086   1.404       .  A
C1081      H1088   1.083       .  S
C1082      C1083   1.416       .  A
C1083      C1084   1.398       .  A
C1083      N1090   1.431       .  S
C1084      C1085   1.402       .  A
C1084      H1089   1.084       .  S
C1085      C1086   1.408       .  A
C1086      N1087   1.429       .  S
N1087      O1091   1.262       .  A
N1087      O1092   1.262       .  A
N1090      O1094   1.262       .  A
N1090      O1093   1.262       .  A
C1095      C1096   1.407       .  A
C1095      C1100   1.408       .  A
C1095      H1102   1.084       .  S
C1096      C1097   1.414       .  A
C1097      C1098   1.392       .  A
C1097      N1104   1.431       .  S
C1098      C1099   1.401       .  A
C1098      H1103   1.083       .  S
C1099      C1100   1.413       .  A
C1100      N1101   1.428       .  S
N1101      O1105   1.262       .  A
N1101      O1106   1.262       .  A
N1104      O1108   1.262       .  A
N1104      O1107   1.262       .  A
C1109      C1110   1.404       .  A
C1109      C1114   1.392       .  A
C1109      H1116   1.084       .  S
C1110      C1111   1.411       .  A
C1111      C1112   1.405       .  A
C1111      N1118   1.429       .  S
C1112      C1113   1.404       .  A
C1112      H1117   1.084       .  S
C1113      C1114   1.407       .  A
C1114      N1115   1.429       .  S
N1115      O1119   1.261       .  A
N1115      O1120   1.262       .  A
N1118      O1122   1.262       .  A
N1118      O1121   1.262       .  A
C1123      C1124   1.408       .  A
C1123      C1128   1.395       .  A
C1123      H1130   1.083       .  S
C1124      C1125   1.417       .  A
C1125      C1126   1.398       .  A
C1125      N1132   1.431       .  S
C1126      C1127   1.399       .  A
C1126      H1131   1.084       .  S
C1127      C1128   1.403       .  A
C1128      N1129   1.430   1_655  S
N1129      O1133   1.262       .  A
N1129      O1134   1.262       .  A
N1132      O1136   1.262       .  A
N1132      O1135   1.262       .  A
C1137      C1138   1.401       .  A
C1137      C1142   1.393       .  A
C1137      H1144   1.084       .  S
C1138      C1139   1.414       .  A
C1139      C1140   1.397       .  A
C1139      N1146   1.431       .  S
C1140      C1141   1.399       .  A
C1140      H1145   1.084       .  S
C1141      C1142   1.405       .  A
C1142      N1143   1.427       .  S
N1143      O1147   1.262       .  A
N1143      O1148   1.260       .  A
N1146      O1150   1.262       .  A
N1146      O1149   1.262       .  A
C1151      C1152   1.400       .  A
C1151      C1156   1.396       .  A
C1151      H1158   1.084       .  S
C1152      C1153   1.405       .  A
C1153      C1154   1.395       .  A
C1153      N1160   1.430       .  S
C1154      C1155   1.405       .  A
C1154      H1159   1.084       .  S
C1155      C1156   1.413       .  A
C1156      N1157   1.431       .  S
N1157      O1161   1.262       .  A
N1157      O1162   1.262       .  A
N1160      O1164   1.262       .  A
N1160      O1163   1.262       .  A
