geometry optimzed in LAMMPS
_audit_creation_date              2020-12-01 
_audit_creation_method            'lammps2cif' 
_symmetry_space_group_name_H-M    'P1' 
_symmetry_Int_Tables_number       1 
_symmetry_cell_setting            triclinic 
loop_ 
_symmetry_equiv_pos_as_xyz 
  x,y,z 
_cell_length_a                    58.44133697 
_cell_length_b                    58.3933515504222 
_cell_length_c                    45.92478885983315 
_cell_angle_alpha                 90.03641853934317 
_cell_angle_beta                  89.95226830482596 
_cell_angle_gamma                 120.69996361255481 
loop_ 
_atom_site_label 
_atom_site_type_symbol 
_atom_site_fract_x 
_atom_site_fract_y 
_atom_site_fract_z 
_atom_site_charge 
In1        In  0.68330364  0.12637203  0.09199329     1.36900
C2          C  0.66618969  0.08047851  0.06254685     0.77700
O3          O  0.64493679  0.10668861  0.11784156    -0.60800
O4          O  0.65375176  0.13982903  0.09113160    -0.51700
C5          C  0.71446889  0.14995031  0.13883174     0.70300
O6          O  0.71359675  0.13014645  0.12638633    -0.46600
C7          C  0.71483602  0.15968313  0.05110530     0.75000
O8          O  0.67544206  0.08363035  0.08815810    -0.58400
O9          O  0.69165606  0.15523429  0.05577221    -0.48500
O10         O  0.66552732  0.10032426  0.05314229    -0.54800
C11         C  0.63764684  0.12241652  0.10867536     0.85200
O12         O  0.69901144  0.15663745  0.12784478    -0.56700
O13         O  0.72203699  0.14737428  0.06778882    -0.60000
In14       In  0.56560878  0.86835355  0.41116102     1.36900
C15         C  0.59200408  0.91510896  0.43896361     0.77700
O16         O  0.54476961  0.88394010  0.38362587    -0.60800
O17         O  0.52095761  0.84862780  0.40760702    -0.51700
C18         C  0.57797563  0.84712948  0.36649563     0.70300
O19         O  0.58738701  0.87198155  0.36856936    -0.46600
C20         C  0.56840091  0.84054755  0.45513994     0.75000
O21         O  0.56867224  0.89702908  0.44516248    -0.58400
O22         O  0.54740595  0.84070109  0.44890887    -0.48500
O23         O  0.60193316  0.90974671  0.41736195    -0.54800
C24         C  0.52158403  0.86569498  0.39028474     0.85200
O25         O  0.56276576  0.83378560  0.38707196    -0.56700
O26         O  0.58804294  0.85483982  0.43883236    -0.60000
In27       In  0.42843703  0.12832274  0.17466899     1.36900
C28         C  0.39503384  0.08260093  0.20184212     0.77700
O29         O  0.44865823  0.11006380  0.14990391    -0.60800
O30         O  0.47092131  0.13962353  0.18144370    -0.51700
C31         C  0.41828505  0.14923780  0.12806180     0.70300
O32         O  0.40003261  0.13022633  0.14238738    -0.46600
C33         C  0.43399898  0.16460750  0.21305725     0.75000
O34         O  0.39664178  0.08428008  0.17442809    -0.58400
O35         O  0.45150500  0.15835391  0.20924173    -0.48500
O36         O  0.41012038  0.10412316  0.21471407    -0.54800
C37         C  0.47072296  0.12376617  0.16271051     0.85200
O38         O  0.44137074  0.15628496  0.13681467    -0.56700
O39         O  0.41393689  0.15262302  0.19669051    -0.60000
In40       In  0.30882466  0.86556355  0.33260891     1.36900
C41         C  0.31765707  0.91330017  0.31563763     0.77700
O42         O  0.33676794  0.85061462  0.32315810    -0.60800
O43         O  0.35044369  0.88421447  0.35055752    -0.51700
C44         C  0.27740097  0.84419083  0.37973547     0.70300
O45         O  0.29839387  0.84367906  0.37544147    -0.46600
C46         C  0.28573455  0.83427766  0.28701166     0.75000
O47         O  0.33013448  0.91049629  0.33638920    -0.58400
O48         O  0.27712275  0.82736154  0.31264104    -0.48500
O49         O  0.29929307  0.89166555  0.30550378    -0.54800
C50         C  0.35564539  0.86808240  0.33823384     0.85200
O51         O  0.27304601  0.85693001  0.36054831    -0.56700
O52         O  0.30686508  0.85660685  0.28515027    -0.60000
In53       In  0.30547641  0.44017957  0.26034169     1.36900
C54         C  0.31841900  0.40707047  0.28587477     0.77700
O55         O  0.34076900  0.45803339  0.22984553    -0.60800
O56         O  0.34134062  0.48129681  0.26555630    -0.51700
C57         C  0.27352605  0.43594132  0.21631449     0.70300
O58         O  0.27878331  0.41788550  0.22197914    -0.46600
C59         C  0.27265309  0.43900567  0.30122996     0.75000
O60         O  0.30730376  0.40204597  0.26114980    -0.58400
O61         O  0.29471485  0.45973723  0.29563427    -0.48500
O62         O  0.32316932  0.42894603  0.29653616    -0.54800
C63         C  0.35335108  0.47984614  0.24341587     0.85200
O64         O  0.28563936  0.45625999  0.23229246    -0.56700
O65         O  0.26776469  0.41901662  0.28602873    -0.60000
In66       In  0.42719486  0.29967389  0.42524458     1.36900
C67         C  0.39885723  0.31753400  0.39789105     0.77700
O68         O  0.44907277  0.33740231  0.45218917    -0.60800
O69         O  0.47124294  0.32527549  0.42681858    -0.51700
C70         C  0.41419718  0.26395727  0.46838985     0.70300
O71         O  0.40671306  0.28080844  0.46872227    -0.46600
C72         C  0.42998293  0.27383920  0.37934392     0.75000
O73         O  0.38899405  0.30039350  0.41803870    -0.58400
O74         O  0.45013301  0.29333778  0.39077232    -0.48500
O75         O  0.42310259  0.32608289  0.39319264    -0.54800
C76         C  0.47176114  0.34246891  0.44371997     0.85200
O77         O  0.42787968  0.26577889  0.44648508    -0.56700
O78         O  0.40817034  0.26734645  0.39175570    -0.60000
In79       In  0.68881723  0.55171847  0.00478928     1.36900
C80         C  0.67049258  0.58074125  0.02946101     0.77700
O81         O  0.65363706  0.53278528  0.47191164    -0.60800
O82         O  0.65870252  0.50851369  0.00971680    -0.51700
C83         C  0.72450783  0.56307504  0.45516736     0.70300
O84         O  0.71838502  0.58013712  0.46259180    -0.46600
C85         C  0.72158614  0.55513321  0.04658446     0.75000
O86         O  0.68073286  0.58574612  0.00428295    -0.58400
O87         O  0.70038426  0.53379404  0.04042404    -0.48500
O88         O  0.66986754  0.56111610  0.04162162    -0.54800
C89         C  0.64535379  0.51091135  0.48499080     0.85200
O90         O  0.71232563  0.54158069  0.46915943    -0.56700
O91         O  0.72592878  0.57492258  0.03128586    -0.60000
In92       In  0.56061882  0.69311326  0.15957012     1.36900
C93         C  0.58796366  0.67464456  0.13159000     0.77700
O94         O  0.54293023  0.65538837  0.18643495    -0.60800
O95         O  0.51714774  0.66165622  0.15970799    -0.51700
C96         C  0.57016671  0.72694144  0.20406124     0.70300
O97         O  0.58578709  0.71864941  0.19770394    -0.46600
C98         C  0.56386508  0.72510935  0.11672012     0.75000
O99         O  0.59549716  0.68644274  0.15592769    -0.58400
O100        O  0.54228345  0.70436662  0.12369399    -0.48500
O101        O  0.56684157  0.67268876  0.12207235    -0.54800
C102        C  0.51952551  0.64630047  0.17716805     0.85200
O103        O  0.54958745  0.71707620  0.18839272    -0.56700
O104        O  0.58363704  0.72950125  0.13202532    -0.60000
In105      In  0.86150042  0.30507062  0.34337172     1.36900
C106        C  0.90811669  0.31988366  0.37008996     0.77700
O107        O  0.87945611  0.34315080  0.31770731    -0.60800
O108        O  0.85138119  0.33663777  0.35079186    -0.51700
C109        C  0.83678208  0.27463259  0.29654967     0.70300
O110        O  0.85632324  0.27483046  0.30862641    -0.46600
C111        C  0.82802303  0.27289370  0.38327066     0.75000
O112        O  0.90439912  0.31368204  0.34336489    -0.58400
O113        O  0.82992421  0.29476301  0.37667916    -0.48500
O114        O  0.88831857  0.31877058  0.38232798    -0.54800
C115        C  0.86628165  0.35171682  0.33085286     0.85200
O116        O  0.83090035  0.29064469  0.30770911    -0.56700
O117        O  0.84266960  0.26719271  0.36854994    -0.60000
In118      In  0.12736445  0.43799604  0.01006322     1.36900
C119        C  0.08109364  0.40859077  0.48159991     0.77700
O120        O  0.10925663  0.45615986  0.03850427    -0.60800
O121        O  0.14076507  0.48208534  0.50528877    -0.51700
C122        C  0.15370899  0.43246109  0.05462523     0.70300
O123        O  0.12928749  0.41573128  0.05014828    -0.46600
C124        C  0.15651282  0.43748571  0.46404198     0.75000
O125        O  0.08669558  0.40058408  0.00437992    -0.58400
O126        O  0.15664390  0.45837213  0.47135233    -0.48500
O127        O  0.09822080  0.43178280  0.47376084    -0.54800
C128        C  0.12435169  0.47949952  0.02897652     0.85200
O129        O  0.16370915  0.45130955  0.03655775    -0.56700
O130        O  0.14228597  0.41750597  0.47988582    -0.60000
In131      In  0.13105165  0.69500754  0.08393477     1.36900
C132        C  0.08688714  0.68619690  0.11154316     0.77700
O133        O  0.10917511  0.65509783  0.06118681    -0.60800
O134        O  0.13719108  0.66120046  0.09405558    -0.51700
C135        C  0.15389948  0.72305654  0.03570002     0.70300
O136        O  0.13719249  0.72596866  0.05021087    -0.46600
C137        C  0.16976993  0.72557721  0.12055126     0.75000
O138        O  0.08816256  0.68570834  0.08410664    -0.58400
O139        O  0.16232103  0.70143781  0.11612642    -0.48500
O140        O  0.10825138  0.69205720  0.12414050    -0.54800
C141        C  0.12076038  0.64549076  0.07554291     0.85200
O142        O  0.15736549  0.70475666  0.04490903    -0.56700
O143        O  0.15773810  0.73425126  0.10548474    -0.60000
In144      In  0.87048257  0.56250127  0.25184935     1.36900
C145        C  0.91840091  0.59296635  0.22761262     0.77700
O146        O  0.88653581  0.54227571  0.27987985    -0.60800
O147        O  0.85207517  0.51839169  0.25456897    -0.51700
C148        C  0.84640911  0.57287761  0.29508304     0.70300
O149        O  0.87128158  0.58228407  0.29488363    -0.46600
C150        C  0.84204077  0.56144691  0.20668905     0.75000
O151        O  0.90954255  0.60168634  0.24713046    -0.58400
O152        O  0.84474415  0.54193631  0.21318298    -0.48500
O153        O  0.90293269  0.56886500  0.22128173    -0.54800
C154        C  0.86885089  0.51911684  0.27229892     0.85200
O155        O  0.83441644  0.55843593  0.27353302    -0.56700
O156        O  0.85466998  0.58161166  0.22284038    -0.60000
C157        C  0.97824554  0.61372887  0.17853066    -0.27500
C158        C  0.99183319  0.64152148  0.18098552     0.02100
C159        C  0.98204749  0.65339688  0.20009613     0.30100
C160        C  0.95839200  0.63740787  0.21570004    -0.19300
C161        C  0.94435038  0.60951797  0.21265430    -0.28700
C162        C  0.95476583  0.59776007  0.19406092     0.44200
C163        C  0.01606498  0.65740531  0.16311151     0.05400
O164        O  0.99473749  0.68058643  0.20255816    -0.57300
H165        H  0.95073759  0.64690269  0.22970369     0.18300
O166        O  0.94237375  0.57062256  0.19110790    -0.64000
H167        H  0.98586269  0.60432716  0.16430311     0.16800
C168        C  0.04133593  0.67175086  0.17608617     0.29000
C169        C  0.06422183  0.68261597  0.15870559    -0.24900
C170        C  0.06241326  0.67910369  0.12828122    -0.24100
C171        C  0.03705340  0.66618964  0.11519515     0.40500
C172        C  0.01415848  0.65532136  0.13262663    -0.26600
O173        O  0.04392402  0.67386058  0.20580310    -0.58500
H174        H  0.08348295  0.69265333  0.16929584     0.16100
O175        O  0.03430495  0.66232601  0.08565959    -0.59900
H176        H  0.99478434  0.64423388  0.12238674     0.14500
H177        H  0.93221922  0.56647445  0.17264148     0.46400
H178        H  0.04611998  0.65881758  0.21196255     0.41800
H179        H  0.03285336  0.67741017  0.07801599     0.45200
H180        H  0.00413787  0.68482184  0.22152514     0.36700
C181        C  0.13797790  0.55022112  0.03672351    -0.27500
C182        C  0.11642224  0.54627165  0.05380964     0.02100
C183        C  0.09815883  0.52059401  0.06403877     0.30100
C184        C  0.10108547  0.49899636  0.05616965    -0.19300
C185        C  0.12238806  0.50276185  0.03841758    -0.28700
C186        C  0.14114570  0.52881083  0.02908056     0.44200
C187        C  0.11389044  0.56949552  0.06115209     0.05400
O188        O  0.07711420  0.51635780  0.08116353    -0.57300
H189        H  0.08649579  0.47924404  0.06371921     0.18300
O190        O  0.14888494  0.52959167  0.48996368    -0.64000
H191        H  0.14094961  0.56713320  0.50809826     0.16800
C192        C  0.12461351  0.58348406  0.08721149     0.29000
C193        C  0.12575461  0.60770080  0.09201253    -0.24900
C194        C  0.11631817  0.61839390  0.07100441    -0.24100
C195        C  0.10449672  0.60371741  0.04538411     0.40500
C196        C  0.10345372  0.57947033  0.04058904    -0.26600
O197        O  0.13473625  0.57399748  0.10773248    -0.58500
H198        H  0.13470740  0.61848314  0.11197025     0.16100
O199        O  0.09479057  0.61326526  0.02445415    -0.59900
H200        H  0.09528124  0.56884685  0.02035098     0.14500
H201        H  0.13637232  0.52354127  0.47326814     0.46400
H202        H  0.15391479  0.58234535  0.10297085     0.41800
H203        H  0.10976924  0.62329552  0.01070940     0.45200
H204        H  0.08353252  0.51798913  0.10146617     0.36700
C205        C  0.88514409  0.41770675  0.29490362    -0.27500
C206        C  0.86795021  0.42419803  0.30906153     0.02100
C207        C  0.85038321  0.40697074  0.33045105     0.30100
C208        C  0.85032479  0.38365595  0.33757254    -0.19300
C209        C  0.86747797  0.37697415  0.32335312    -0.28700
C210        C  0.88483956  0.39418924  0.30166899     0.44200
C211        C  0.86804381  0.44866656  0.30078307     0.05400
O212        O  0.83311463  0.41269028  0.34439299    -0.57300
H213        H  0.83660981  0.37065555  0.35410777     0.18300
O214        O  0.90168083  0.38834999  0.28700538    -0.64000
H215        H  0.89853152  0.43071975  0.27814976     0.16800
C216        C  0.89085921  0.47391650  0.30473661     0.29000
C217        C  0.89067219  0.49681276  0.29608265    -0.24900
C218        C  0.86806320  0.49482395  0.28284150    -0.24100
C219        C  0.84515266  0.46944300  0.27914171     0.40500
C220        C  0.84527052  0.44664906  0.28816968    -0.26600
O221        O  0.91317013  0.47636573  0.31764005    -0.58500
H222        H  0.90844252  0.51610591  0.29921932     0.16100
O223        O  0.82259836  0.46660315  0.26647734    -0.59900
H224        H  0.82763849  0.42726333  0.28491873     0.14500
H225        H  0.89204909  0.37922558  0.26893073     0.46400
H226        H  0.92592414  0.48022422  0.30149710     0.41800
H227        H  0.81176641  0.46705014  0.28285879     0.45200
H228        H  0.84361281  0.42503399  0.36037524     0.36700
C229        C  0.98021625  0.34124486  0.38869091    -0.27500
C230        C  0.98136225  0.34752783  0.41845305     0.02100
C231        C  0.95796863  0.34312271  0.43233857     0.30100
C232        C  0.93434609  0.33359244  0.41637595    -0.19300
C233        C  0.93329490  0.32811519  0.38636599    -0.28700
C234        C  0.95647462  0.33152251  0.37271579     0.44200
C235        C  0.00749440  0.36152402  0.43392140     0.05400
O236        O  0.95848479  0.35001977  0.46100323    -0.57300
H237        H  0.91689281  0.33114564  0.42753026     0.18300
O238        O  0.95633275  0.32580622  0.34373543    -0.64000
H239        H  0.99801004  0.34448479  0.37762283     0.16800
C240        C  0.01194418  0.35205352  0.46034407     0.29000
C241        C  0.03593057  0.36736560  0.47569002    -0.24900
C242        C  0.05597636  0.39212447  0.46493030    -0.24100
C243        C  0.05185341  0.40093604  0.43780354     0.40500
C244        C  0.02791177  0.38570785  0.42266659    -0.26600
O245        O  0.99299491  0.32787029  0.47135233    -0.58500
H246        H  0.03876096  0.35989233  0.49612969     0.16100
O247        O  0.07122361  0.42429771  0.42554809    -0.59900
H248        H  0.02502151  0.39323115  0.40228207     0.14500
H249        H  0.96263304  0.34295206  0.33348879     0.46400
H250        H  0.99786757  0.31497369  0.46390638     0.41800
H251        H  0.06631724  0.43773070  0.43072754     0.45200
H252        H  0.94879721  0.33291387  0.47173045     0.36700
C253        C  0.78190544  0.57941316  0.09563249    -0.27500
C254        C  0.77387298  0.55707235  0.11345664     0.02100
C255        C  0.74842270  0.53451812  0.10977051     0.30100
C256        C  0.73159743  0.53431262  0.08801712    -0.19300
C257        C  0.73972492  0.55646491  0.06977209    -0.28700
C258        C  0.76508163  0.57925898  0.07389341     0.44200
C259        C  0.79170984  0.55810946  0.13682364     0.05400
O260        O  0.73935136  0.51320982  0.12834899    -0.57300
H261        H  0.71201066  0.51678206  0.08562677     0.18300
O262        O  0.77357610  0.60156441  0.05705913    -0.64000
H263        H  0.80135159  0.59703372  0.09857454     0.16800
C264        C  0.80005387  0.53938416  0.13836701     0.29000
C265        C  0.81637366  0.54054680  0.16130261    -0.24900
C266        C  0.82499771  0.56059837  0.18254519    -0.24100
C267        C  0.81673553  0.57941632  0.18076074     0.40500
C268        C  0.80035834  0.57813374  0.15795419    -0.26600
O269        O  0.79258918  0.52008938  0.11743267    -0.58500
H270        H  0.82252961  0.52592545  0.16226690     0.16100
O271        O  0.82421719  0.59896644  0.20138515    -0.59900
H272        H  0.79398922  0.59259574  0.15702592     0.14500
H273        H  0.78351238  0.59952505  0.04073179     0.46400
H274        H  0.80710482  0.52779976  0.10279698     0.41800
H275        H  0.81003075  0.59119621  0.21639788     0.45200
H276        H  0.73818610  0.49847143  0.11645240     0.36700
C277        C  0.79241475  0.57744409  0.33590395    -0.27500
C278        C  0.80089573  0.57942505  0.36482309     0.02100
C279        C  0.82563633  0.58162042  0.37050017     0.30100
C280        C  0.84107898  0.58088236  0.34748734    -0.19300
C281        C  0.83193091  0.57750365  0.31867089    -0.28700
C282        C  0.80765464  0.57641504  0.31294311     0.44200
C283        C  0.78259519  0.57652418  0.38885730     0.05400
O284        O  0.83441817  0.58355101  0.39857049    -0.57300
H285        H  0.85963594  0.58172488  0.35232182     0.18300
O286        O  0.79825943  0.57362126  0.28501767    -0.64000
H287        H  0.77338010  0.57560726  0.33119495     0.16800
C288        C  0.77415464  0.59497430  0.39303768     0.29000
C289        C  0.75548634  0.59065182  0.41487158    -0.24900
C290        C  0.74463741  0.56775470  0.43247747    -0.24100
C291        C  0.75364630  0.54961275  0.42852716     0.40500
C292        C  0.77232748  0.55405837  0.40686678    -0.26600
O293        O  0.78451950  0.61756859  0.37633414    -0.58500
H294        H  0.74929886  0.60511127  0.41780470     0.16100
O295        O  0.74424311  0.52729113  0.44555181    -0.59900
H296        H  0.77854421  0.53962380  0.40379956     0.14500
H297        H  0.80599863  0.59204940  0.27754731     0.46400
H298        H  0.77109247  0.61352158  0.36093456     0.41800
H299        H  0.75623148  0.53300619  0.46269584     0.45200
H300        H  0.84626573  0.60290023  0.40208829     0.36700
C301        C  0.64802851  0.63063161  0.04387988    -0.27500
C302        C  0.63955994  0.62494130  0.07298173     0.02100
C303        C  0.64126374  0.60466926  0.08757753     0.30100
C304        C  0.65126026  0.59046833  0.07306431    -0.19300
C305        C  0.66003489  0.59630605  0.04400110    -0.28700
C306        C  0.65840163  0.61669997  0.02948160     0.44200
C307        C  0.62762383  0.63923179  0.08734825     0.05400
O308        O  0.63190346  0.59767608  0.11552020    -0.57300
H309        H  0.65203899  0.57473298  0.08467295     0.18300
O310        O  0.66623403  0.62278242  0.00100796    -0.64000
H311        H  0.64661044  0.64600765  0.03226982     0.16800
C312        C  0.63790431  0.65337064  0.11357555     0.29000
C313        C  0.62510123  0.66514441  0.12757479    -0.24900
C314        C  0.60219119  0.66346214  0.11555933    -0.24100
C315        C  0.59272038  0.65037658  0.08849423     0.40500
C316        C  0.60531811  0.63831787  0.07480165    -0.26600
O317        O  0.66044965  0.65577011  0.12572421    -0.58500
H318        H  0.63303620  0.67543597  0.14802066     0.16100
O319        O  0.57072992  0.64857188  0.07549890    -0.59900
H320        H  0.59729439  0.62773728  0.05450442     0.14500
H321        H  0.68535619  0.63669534  0.00187734     0.46400
H322        H  0.67528361  0.67284891  0.11817557     0.41800
H323        H  0.57783758  0.66349153  0.06136181     0.45200
H324        H  0.64793460  0.60381033  0.12783960     0.36700
C325        C  0.54529779  0.39396873  0.44972695    -0.27500
C326        C  0.54467910  0.41470535  0.46425726     0.02100
C327        C  0.52013387  0.41133444  0.47325117     0.30100
C328        C  0.49645226  0.38751812  0.46702034    -0.19300
C329        C  0.49696007  0.36681073  0.45194288    -0.28700
C330        C  0.52178767  0.37015197  0.44365059     0.44200
C331        C  0.56996507  0.43959081  0.47014189     0.05400
O332        O  0.51910500  0.43120841  0.48802668    -0.57300
H333        H  0.47767382  0.38539446  0.47366666     0.18300
O334        O  0.52339396  0.35047087  0.42916363    -0.64000
H335        H  0.56414960  0.39636030  0.44287019     0.16800
C336        C  0.58850229  0.43967016  0.48962054     0.29000
C337        C  0.61296472  0.46298646  0.49399342    -0.24900
C338        C  0.61946030  0.48654742  0.47901180    -0.24100
C339        C  0.60068620  0.48646997  0.45963144     0.40500
C340        C  0.57614549  0.46303625  0.45528222    -0.26600
O341        O  0.58251110  0.41720018  0.50511522    -0.58500
H342        H  0.62519457  0.45905681  0.01210046     0.16100
O343        O  0.60607088  0.50904467  0.44476210    -0.59900
H344        H  0.56198762  0.46307096  0.44008815     0.14500
H345        H  0.52459009  0.33929969  0.44465142     0.46400
H346        H  0.59209277  0.40738056  0.99569438     0.41800
H347        H  0.59965638  0.51827049  0.45759845     0.45200
H348        H  0.52357567  0.42963730  0.50848270     0.36700
C349        C  0.19340346  0.41686763  0.41233727    -0.27500
C350        C  0.20178310  0.43659720  0.39082142     0.02100
C351        C  0.19415344  0.45583984  0.39279039     0.30100
C352        C  0.17925790  0.45579308  0.41670879    -0.19300
C353        C  0.17160947  0.43658120  0.43875152    -0.28700
C354        C  0.17848009  0.41677566  0.43621213     0.44200
C355        C  0.21951507  0.43756062  0.36722293     0.05400
O356        O  0.20047526  0.47417387  0.37095709    -0.57300
H357        H  0.17358783  0.47077596  0.41792910     0.18300
O358        O  0.17124311  0.39757412  0.45719710    -0.64000
H359        H  0.19910946  0.40191661  0.41102261     0.16800
C360        C  0.24508621  0.46007000  0.36363678     0.29000
C361        C  0.26200447  0.46038379  0.34188207    -0.24900
C362        C  0.25405536  0.43821609  0.32371893    -0.24100
C363        C  0.22844218  0.41556661  0.32749772     0.40500
C364        C  0.21147378  0.41536414  0.34917869    -0.26600
O365        O  0.25400881  0.48163517  0.38178842    -0.58500
H366        H  0.28160747  0.47790502  0.33957987     0.16100
O367        O  0.21984943  0.39336810  0.31043597    -0.59900
H368        H  0.19194798  0.39780730  0.35192951     0.14500
H369        H  0.18492812  0.40602371  0.47264806     0.46400
H370        H  0.26043408  0.47690810  0.39947607     0.41800
H371        H  0.21035436  0.39581389  0.29394739     0.45200
H372        H  0.21339489  0.49165465  0.37962617     0.36700
C373        C  0.21139217  0.45025943  0.10628506    -0.27500
C374        C  0.20092486  0.42821398  0.12493417     0.02100
C375        C  0.17466718  0.40704279  0.12025526     0.30100
C376        C  0.15927160  0.40848172  0.09743998    -0.19300
C377        C  0.16985130  0.43072578  0.07879093    -0.28700
C378        C  0.19636145  0.45158021  0.08339959     0.44200
C379        C  0.21778023  0.42855743  0.14951376     0.05400
O380        O  0.16349859  0.38554471  0.13868417    -0.57300
H381        H  0.13902997  0.39222020  0.09442849     0.18300
O382        O  0.20778840  0.47382320  0.06607040    -0.64000
H383        H  0.23154250  0.46668389  0.10946716     0.16800
C384        C  0.22522630  0.40918595  0.15230624     0.29000
C385        C  0.24316612  0.41162151  0.17420250    -0.24900
C386        C  0.25433701  0.43348960  0.19337585    -0.24100
C387        C  0.24657873  0.45270488  0.19066365     0.40500
C388        C  0.22861303  0.45015200  0.16892994    -0.26600
O389        O  0.21579347  0.38825904  0.13319283    -0.58500
H390        H  0.24871587  0.39657948  0.17581977     0.16100
O391        O  0.25667425  0.47435656  0.20884866    -0.59900
H392        H  0.22328925  0.46535464  0.16701856     0.14500
H393        H  0.21703299  0.46992945  0.05043520     0.46400
H394        H  0.22791386  0.39519120  0.11616766     0.41800
H395        H  0.24364137  0.46894648  0.22499582     0.45200
H396        H  0.16207762  0.37051443  0.12713462     0.36700
C397        C  0.42118048  0.54373895  0.24321967    -0.27500
C398        C  0.42815515  0.54596575  0.21369875     0.02100
C399        C  0.41123909  0.52559578  0.19434647     0.30100
C400        C  0.38741991  0.50369816  0.20449863    -0.19300
C401        C  0.37972251  0.50206072  0.23379788    -0.28700
C402        C  0.39708360  0.52219283  0.25327722     0.44200
C403        C  0.45181831  0.57076554  0.20300754     0.05400
O404        O  0.41791577  0.52693080  0.16549582    -0.57300
H405        H  0.37452664  0.48840063  0.18917511     0.18300
O406        O  0.39088629  0.52086092  0.28227195    -0.64000
H407        H  0.43405213  0.55926405  0.25834983     0.16800
C408        C  0.44854141  0.58910370  0.18636327     0.29000
C409        C  0.47073452  0.61330034  0.17784109    -0.24900
C410        C  0.49660883  0.61992714  0.18587371    -0.24100
C411        C  0.49993992  0.60120046  0.20201065     0.40500
C412        C  0.47760412  0.57698218  0.21071591    -0.26600
O413        O  0.42358832  0.58379995  0.17885743    -0.58500
H414        H  0.46757555  0.62716537  0.16532420     0.16100
O415        O  0.52482988  0.60637038  0.20960069    -0.59900
H416        H  0.48039963  0.56302935  0.22354062     0.14500
H417        H  0.38276205  0.53209062  0.28447527     0.46400
H418        H  0.41728468  0.58958942  0.19582967     0.41800
H419        H  0.53019135  0.59850814  0.19376410     0.45200
H420        H  0.40687049  0.53278382  0.15519380     0.36700
C421        C  0.37877903  0.34858242  0.33764408    -0.27500
C422        C  0.35492370  0.34542598  0.34846488     0.02100
C423        C  0.34493627  0.33213271  0.37519408     0.30100
C424        C  0.35901104  0.32253638  0.39083918    -0.19300
C425        C  0.38351564  0.32670181  0.38060147    -0.28700
C426        C  0.39321615  0.33970557  0.35356040     0.44200
C427        C  0.34261172  0.35893758  0.33324902     0.05400
O428        O  0.32133509  0.32828304  0.38601308    -0.57300
H429        H  0.35105464  0.31242409  0.41136981     0.18300
O430        O  0.41667368  0.34360436  0.34222779    -0.64000
H431        H  0.38680366  0.35893324  0.31723083     0.16800
C432        C  0.34341761  0.38116994  0.34613272     0.29000
C433        C  0.33497067  0.39607449  0.33054259    -0.24900
C434        C  0.32551724  0.38933236  0.30181171    -0.24100
C435        C  0.32369845  0.36638504  0.28921612     0.40500
C436        C  0.33262170  0.35162513  0.30477730    -0.26600
O437        O  0.35338417  0.38912222  0.37369724    -0.58500
H438        H  0.33633725  0.41338431  0.34095009     0.16100
O439        O  0.31417581  0.35874179  0.26146521    -0.59900
H440        H  0.33206102  0.33464279  0.29449063     0.14500
H441        H  0.43015295  0.36231907  0.34701463     0.46400
H442        H  0.37287536  0.40079751  0.37111250     0.41800
H443        H  0.29519892  0.34477869  0.26389018     0.45200
H444        H  0.32626733  0.34061853  0.40279470     0.36700
C445        C  0.24793228  0.80312797  0.44855690    -0.27500
C446        C  0.22128046  0.79667583  0.44697157     0.02100
C447        C  0.21380329  0.80799185  0.42448337     0.30100
C448        C  0.23254497  0.82450968  0.40353081    -0.19300
C449        C  0.25888069  0.82979271  0.40428313    -0.28700
C450        C  0.26655740  0.81933546  0.42750486     0.44200
C451        C  0.20143135  0.77729910  0.46815928     0.05400
O452        O  0.18801005  0.80226316  0.42210298    -0.57300
H453        H  0.22613155  0.83228587  0.38594762     0.18300
O454        O  0.29207566  0.82419881  0.42949860    -0.64000
H455        H  0.25430349  0.79521141  0.46603599     0.16800
C456        C  0.20124973  0.74948438  0.97168033     0.29000
C457        C  0.18354722  0.73234084  0.99288443    -0.24900
C458        C  0.16954240  0.74037903  0.01100706    -0.24100
C459        C  0.16692372  0.76597042  0.50497517     0.40500
C460        C  0.18483919  0.78366269  0.48409362    -0.26600
O461        O  0.21402523  0.74061362  0.95393016    -0.58500
H462        H  0.18110118  0.71276366  0.99542893     0.16100
O463        O  0.15166373  0.77327523  0.52061564    -0.59900
H464        H  0.18627221  0.80273119  0.48090542     0.14500
H465        H  0.30194054  0.84099968  0.44072909     0.46400
H466        H  0.22760594  0.74009347  0.96639440     0.41800
H467        H  0.16228381  0.78230542  0.53823640     0.45200
H468        H  0.17836325  0.78472368  0.41221532     0.36700
C469        C  0.26380491  0.81336646  0.20897581    -0.27500
C470        C  0.24130848  0.78803339  0.21300386     0.02100
C471        C  0.23426405  0.77752201  0.24137868     0.30100
C472        C  0.24944452  0.79243422  0.26517449    -0.19300
C473        C  0.27162246  0.81804681  0.26125470    -0.28700
C474        C  0.27890640  0.82839185  0.23278559     0.44200
C475        C  0.22485578  0.77293150  0.18767809     0.05400
O476        O  0.21215041  0.75297226  0.24619318    -0.57300
H477        H  0.24343934  0.78413399  0.28683489     0.18300
O478        O  0.30000094  0.85359691  0.22800693    -0.64000
H479        H  0.26959112  0.82163569  0.18727985     0.16800
C480        C  0.21438084  0.78418198  0.16863316     0.29000
C481        C  0.19722533  0.76879952  0.14617372    -0.24900
C482        C  0.19009711  0.74208328  0.14244230    -0.24100
C483        C  0.20123263  0.73111403  0.16104979     0.40500
C484        C  0.21854902  0.74657604  0.18329904    -0.26600
O485        O  0.21926148  0.80953245  0.17308965    -0.58500
H486        H  0.18880373  0.77760084  0.13225905     0.16100
O487        O  0.19435882  0.70494710  0.15870251    -0.59900
H488        H  0.22665552  0.73774208  0.19763071     0.14500
H489        H  0.31514912  0.85117488  0.22303674     0.46400
H490        H  0.23212478  0.82054557  0.15771096     0.41800
H491        H  0.20813694  0.70508833  0.14596570     0.45200
H492        H  0.19696330  0.75605986  0.24622889     0.36700
C493        C  0.45353968  0.20688159  0.28136885    -0.27500
C494        C  0.43612356  0.21670415  0.28006377     0.02100
C495        C  0.41945654  0.21090111  0.25573662     0.30100
C496        C  0.41959812  0.19453801  0.23360567    -0.19300
C497        C  0.43619617  0.18374411  0.23540464    -0.28700
C498        C  0.45354594  0.19032179  0.25936641     0.44200
C499        C  0.43442051  0.23167311  0.30501099     0.05400
O500        O  0.40332931  0.22153327  0.25327693    -0.57300
H501        H  0.40640118  0.19000562  0.21516919     0.18300
O502        O  0.46987858  0.17996821  0.26207496    -0.64000
H503        H  0.46642892  0.21124005  0.30006677     0.16800
C504        C  0.41054564  0.22171265  0.32078690     0.29000
C505        C  0.40927645  0.23582647  0.34467649    -0.24900
C506        C  0.43180521  0.25968114  0.35361609    -0.24100
C507        C  0.45583206  0.26948265  0.33793692     0.40500
C508        C  0.45699199  0.25541577  0.31388043    -0.26600
O509        O  0.38849213  0.19787573  0.31340232    -0.58500
H510        H  0.39071290  0.22779741  0.35654412     0.16100
O511        O  0.47837231  0.29261848  0.34602432    -0.59900
H512        H  0.47554052  0.26308341  0.30204922     0.14500
H513        H  0.45908257  0.16281274  0.27247319     0.46400
H514        H  0.39117132  0.18407015  0.32262680     0.41800
H515        H  0.47810078  0.30683766  0.33450557     0.45200
H516        H  0.38491164  0.20635468  0.25582275     0.36700
C517        C  0.40156277  0.20177281  0.00968224    -0.27500
C518        C  0.40032133  0.20818849  0.03873630     0.02100
C519        C  0.39874663  0.23092154  0.04522926     0.30100
C520        C  0.40005996  0.24782317  0.02265497    -0.19300
C521        C  0.40841478  0.24389976  0.49154755    -0.28700
C522        C  0.41085906  0.22150967  0.48549165     0.44200
C523        C  0.40419881  0.19282274  0.06176187     0.05400
O524        O  0.39781062  0.23772961  0.07359936    -0.57300
H525        H  0.40025961  0.26599039  0.02803321     0.18300
O526        O  0.41543519  0.21620148  0.45769018    -0.64000
H527        H  0.40271228  0.18427887  0.00448002     0.16800
C528        C  0.38273523  0.17262392  0.07750553     0.29000
C529        C  0.38734267  0.15798733  0.09856901    -0.24900
C530        C  0.41327990  0.16313795  0.10400418    -0.24100
C531        C  0.43457549  0.18298126  0.08746901     0.40500
C532        C  0.42989126  0.19752452  0.06659132    -0.26600
O533        O  0.35728643  0.16715868  0.07257380    -0.58500
H534        H  0.37066109  0.14285860  0.11092897     0.16100
O535        O  0.46006029  0.18810952  0.09116264    -0.59900
H536        H  0.44646338  0.21263400  0.05405703     0.14500
H537        H  0.39753356  0.20528928  0.44889530     0.46400
H538        H  0.35123913  0.15569122  0.05499036     0.41800
H539        H  0.46882490  0.20397296  0.10400646     0.45200
H540        H  0.37861560  0.22980349  0.07799221     0.36700
C541        C  0.35429419  0.00942923  0.22267677    -0.27500
C542        C  0.35143236  0.01124796  0.25284936     0.02100
C543        C  0.36058516  0.03645450  0.26536862     0.30100
C544        C  0.37374682  0.05938514  0.24816040    -0.19300
C545        C  0.37784103  0.05772047  0.21823043    -0.28700
C546        C  0.36730136  0.03239121  0.20536518     0.44200
C547        C  0.34105002  0.98703448  0.27126574     0.05400
O548        O  0.35741958  0.03892371  0.29458112    -0.59700
H549        H  0.38134060  0.07862230  0.25848406     0.18300
O550        O  0.37052007  0.02982263  0.17619476    -0.64000
H551        H  0.34750625  0.99020081  0.21269062     0.16800
C552        C  0.31634407  0.96407117  0.26539918     0.29000
C553        C  0.30836441  0.94057953  0.28110331    -0.24900
C554        C  0.32484904  0.93941931  0.30264914    -0.24100
C555        C  0.34927081  0.96270454  0.30905812     0.40500
C556        C  0.35705968  0.98625103  0.29358149    -0.26600
O557        O  0.29978343  0.96452675  0.24453900    -0.58500
H558        H  0.28949865  0.92299424  0.27578751     0.16100
O559        O  0.36622586  0.96247115  0.32952859    -0.59900
H560        H  0.37628124  0.00367557  0.29815419     0.14500
H561        H  0.38755569  0.03004628  0.17460391     0.46400
H562        H  0.30097128  0.95444986  0.22779199     0.41800
H563        H  0.37813381  0.95805867  0.31861110     0.45200
H564        H  0.34091719  0.03972599  0.29614262     0.36700
C565        C  0.58631673  0.82675924  0.29027553    -0.27500
C566        C  0.58569411  0.80273517  0.29597353     0.02100
C567        C  0.58542927  0.79522984  0.32519805     0.30100
C568        C  0.58419390  0.81064687  0.34788605    -0.19300
C569        C  0.58352200  0.83392741  0.34214889    -0.28700
C570        C  0.58542283  0.84239370  0.31308092     0.44200
C571        C  0.58284078  0.78445285  0.27156856     0.05400
O572        O  0.58509818  0.77216920  0.33184452    -0.57300
H573        H  0.58294938  0.80390974  0.37012944     0.18300
O574        O  0.58424394  0.86468101  0.30656158    -0.64000
H575        H  0.58672060  0.83302512  0.26799383     0.16800
C576        C  0.56135103  0.77511358  0.25199276     0.29000
C577        C  0.55759347  0.75645498  0.23044390    -0.24900
C578        C  0.57521702  0.74687212  0.22741402    -0.24100
C579        C  0.59720699  0.75679690  0.24650494     0.40500
C580        C  0.60067940  0.77513438  0.26851570    -0.26600
O581        O  0.54305435  0.78307675  0.25470017    -0.58500
H582        H  0.54061498  0.74938435  0.21606517     0.16100
O583        O  0.61516945  0.74839097  0.24428992    -0.59900
H584        H  0.61740650  0.78213749  0.28325552     0.14500
H585        H  0.60301426  0.87950739  0.30639245     0.46400
H586        H  0.54744167  0.79633752  0.23898696     0.41800
H587        H  0.62899492  0.76105465  0.23061817     0.45200
H588        H  0.56600589  0.75814474  0.33243209     0.36700
C589        C  0.58829875  0.80280298  0.00151075    -0.27500
C590        C  0.56818416  0.79303996  0.02268525     0.02100
C591        C  0.54815814  0.79959036  0.02093127     0.30100
C592        C  0.54795777  0.81502230  0.99773147    -0.19300
C593        C  0.56962003  0.82467705  0.47948811    -0.28700
C594        C  0.58906654  0.81719080  0.48054094     0.44200
C595        C  0.56770246  0.77537983  0.04609992     0.05400
O596        O  0.52921013  0.79166288  0.04235380    -0.57300
H597        H  0.53234200  0.81981441  0.99675367     0.18300
O598        O  0.60748345  0.82426385  0.45868510    -0.64000
H599        H  0.60378484  0.79783139  0.00260750     0.16800
C600        C  0.54600604  0.74921172  0.04885110     0.29000
C601        C  0.54499422  0.73317971  0.07199311    -0.24900
C602        C  0.56576977  0.74259776  0.09236061    -0.24100
C603        C  0.58804818  0.76848384  0.08891688     0.40500
C604        C  0.58880870  0.78469840  0.06597489    -0.26600
O605        O  0.52569381  0.73908982  0.02892058    -0.58500
H606        H  0.52795828  0.71319532  0.07383449     0.16100
O607        O  0.60870367  0.77852099  0.10841616    -0.59900
H608        H  0.60570640  0.80475372  0.06397051     0.14500
H609        H  0.62394616  0.83987200  0.46629706     0.46400
H610        H  0.53157110  0.73171775  0.01307008     0.41800
H611        H  0.62250938  0.77585475  0.09915592     0.45200
H612        H  0.51245493  0.77754580  0.03340272     0.36700
C613        C  0.42576386  0.88830391  0.36254551    -0.27500
C614        C  0.42850803  0.86763346  0.35087786     0.02100
C615        C  0.40809632  0.84827790  0.33328771     0.30100
C616        C  0.38476112  0.84903360  0.32876623    -0.19300
C617        C  0.38140162  0.86903856  0.34155285    -0.28700
C618        C  0.40247886  0.88912280  0.35806745     0.44200
C619        C  0.45217766  0.86586799  0.35860739     0.05400
O620        O  0.41065173  0.82836121  0.32078035    -0.57300
H621        H  0.36906812  0.83360970  0.31561924     0.18300
O622        O  0.40058669  0.90962917  0.37000570    -0.64000
H623        H  0.44147144  0.90347889  0.37591321     0.16800
C624        C  0.47788959  0.88612155  0.35064345     0.29000
C625        C  0.50018400  0.88550836  0.36069712    -0.24900
C626        C  0.49736462  0.86484768  0.37889089    -0.24100
C627        C  0.47146884  0.84419706  0.38631696     0.40500
C628        C  0.44916470  0.84474363  0.37598426    -0.26600
O629        O  0.48143368  0.90684313  0.33338315    -0.58500
H630        H  0.51978915  0.90153678  0.35454408     0.16100
O631        O  0.46765193  0.82349188  0.40378991    -0.59900
H632        H  0.42944415  0.82906418  0.38235552     0.14500
H633        H  0.39496350  0.90425229  0.39046253     0.46400
H634        H  0.48072293  0.90063481  0.31312027     0.41800
H635        H  0.46585332  0.82879873  0.42379606     0.45200
H636        H  0.41627523  0.83421907  0.30042643     0.36700
C637        C  0.77747716  0.20629419  0.50395499    -0.27500
C638        C  0.76464308  0.21052128  0.48054908     0.02100
C639        C  0.73678992  0.19846875  0.48073446     0.30100
C640        C  0.72216220  0.18261230  0.50430375    -0.19300
C641        C  0.73184523  0.17746589  0.02761849    -0.28700
C642        C  0.75970344  0.18891778  0.02821079     0.44200
C643        C  0.78041804  0.22643111  0.45538087     0.05400
O644        O  0.72365555  0.20074162  0.45715655    -0.57300
H645        H  0.70066982  0.17309392  0.50384140     0.18300
O646        O  0.77200535  0.18447285  0.05109767    -0.64000
H647        H  0.79659244  0.21356148  0.00575803     0.16800
C648        C  0.77941189  0.24880860  0.44586880     0.29000
C649        C  0.79441482  0.26329423  0.42178726    -0.24900
C650        C  0.81083216  0.25598377  0.40711855    -0.24100
C651        C  0.81172327  0.23350004  0.41666177     0.40500
C652        C  0.79669760  0.21904230  0.44071937    -0.26600
O653        O  0.76424941  0.25698617  0.46027683    -0.58500
H654        H  0.79355747  0.28059402  0.41493901     0.16100
O655        O  0.82776843  0.22588309  0.40325398    -0.59900
H656        H  0.79764531  0.20186853  0.44789631     0.14500
H657        H  0.77393371  0.19740796  0.06630728     0.46400
H658        H  0.77554594  0.26820192  0.47656429     0.41800
H659        H  0.81645051  0.21294647  0.38808240     0.45200
H660        H  0.71588846  0.21142982  0.46402187     0.36700
C661        C  0.78981052  0.24461596  0.23189804    -0.27500
C662        C  0.78658472  0.21905413  0.22980709     0.02100
C663        C  0.80169043  0.21278179  0.24875563     0.30100
C664        C  0.81896115  0.23150110  0.26937764    -0.19300
C665        C  0.82110158  0.25647884  0.27221509    -0.28700
C666        C  0.80648544  0.26299612  0.25295826     0.44200
C667        C  0.76726814  0.19934554  0.20804814     0.05400
O668        O  0.79914921  0.18811496  0.24801952    -0.57300
H669        H  0.82983904  0.22597763  0.28406910     0.18300
O670        O  0.80813512  0.28725609  0.25461607    -0.64000
H671        H  0.77924314  0.25044968  0.21713818     0.16800
C672        C  0.74174601  0.19603984  0.20418414     0.29000
C673        C  0.72476753  0.17936174  0.18219692    -0.24900
C674        C  0.73217693  0.16498722  0.16382255    -0.24100
C675        C  0.75715584  0.16729398  0.16829759     0.40500
C676        C  0.77444717  0.18437606  0.19012161    -0.26600
O677        O  0.73315209  0.20924717  0.22160646    -0.58500
H678        H  0.70563317  0.17784481  0.17936162     0.16100
O679        O  0.76540241  0.15390481  0.15069966    -0.59900
H680        H  0.79395353  0.18664865  0.19222245     0.14500
H681        H  0.82417587  0.29958314  0.24317841     0.46400
H682        H  0.72502907  0.19758367  0.23880503     0.41800
H683        H  0.77583756  0.16663420  0.13496296     0.45200
H684        H  0.78535000  0.17742416  0.26274258     0.36700
C685        C  0.57238472  0.10329774  0.14737497    -0.27500
C686        C  0.56490289  0.11967538  0.13303380     0.02100
C687        C  0.58129092  0.13680322  0.11088840     0.30100
C688        C  0.60487089  0.13750985  0.10338278    -0.19300
C689        C  0.61244325  0.12099134  0.11745476    -0.28700
C690        C  0.59591561  0.10379072  0.13970519     0.44200
C691        C  0.54018891  0.11920517  0.14143996     0.05400
O692        O  0.57477311  0.15351268  0.09704483    -0.57300
H693        H  0.61723244  0.15104100  0.08637013     0.18300
O694        O  0.60246366  0.08733782  0.15404963    -0.64000
H695        H  0.55989547  0.09004987  0.16451304     0.16800
C696        C  0.51770982  0.10747703  0.12319956     0.29000
C697        C  0.49508893  0.10871924  0.13058039    -0.24900
C698        C  0.49450478  0.12174288  0.15607225    -0.24100
C699        C  0.51698762  0.13314272  0.17456487     0.40500
C700        C  0.53947664  0.13160067  0.16727296    -0.26600
O701        O  0.51782986  0.09508987  0.09787390    -0.58500
H702        H  0.47812320  0.09984001  0.11603902     0.16100
O703        O  0.51708424  0.14547166  0.20004076    -0.59900
H704        H  0.55665238  0.14061577  0.18152769     0.14500
H705        H  0.61164518  0.09707818  0.17205016     0.46400
H706        H  0.51181247  0.07646999  0.10354020     0.41800
H707        H  0.52700356  0.16479541  0.19555859     0.45200
H708        H  0.56548673  0.14402422  0.07898010     0.36700
C709        C  0.63772526  0.98462574  0.96491651    -0.27500
C710        C  0.63202494  0.98575557  0.49250934     0.02100
C711        C  0.60743958  0.96380428  0.50089219     0.30100
C712        C  0.59469319  0.94130134  0.48296527    -0.19300
C713        C  0.60620549  0.93990442  0.45660134    -0.28700
C714        C  0.63092699  0.96191754  0.44820882     0.44200
C715        C  0.63792108  0.00911581  0.01009854     0.05400
O716        O  0.59504359  0.96476184  0.52586991    -0.57300
H717        H  0.57564497  0.92479650  0.48989525     0.18300
O718        O  0.63780968  0.96303067  0.92054468    -0.64000
H719        H  0.65565842  0.00242528  0.95777613     0.16800
C720        C  0.64721136  0.01012295  0.03869605     0.29000
C721        C  0.65668088  0.03343965  0.05557890    -0.24900
C722        C  0.65683065  0.05595907  0.04444234    -0.24100
C723        C  0.64793940  0.05488647  0.01549628     0.40500
C724        C  0.63866699  0.03173600  0.99876320    -0.26600
O725        O  0.64788832  0.98870352  0.04991592    -0.58500
H726        H  0.66375287  0.03380547  0.07746428     0.16100
O727        O  0.64772546  0.07621520  0.00331236    -0.59900
H728        H  0.64026344  0.03335461  0.47560613     0.14500
H729        H  0.63682540  0.96971352  0.40800173     0.46400
H730        H  0.63427490  0.98151622  0.06554835     0.41800
H731        H  0.66499735  0.08641608  0.99299822     0.45200
H732        H  0.59585166  0.95199490  0.53944672     0.36700
In733      In  0.68749504  0.12670655  0.59207366     1.36900
C734        C  0.67101925  0.08140291  0.56232518     0.77700
O735        O  0.64784875  0.10685536  0.61524254    -0.60800
O736        O  0.66048970  0.14322032  0.59297842    -0.51700
C737        C  0.71789076  0.14704810  0.63978555     0.70300
O738        O  0.71806149  0.12888018  0.62492727    -0.46600
C739        C  0.71862462  0.16071937  0.55164372     0.75000
O740        O  0.67838881  0.08375753  0.58863787    -0.58400
O741        O  0.69499176  0.15502295  0.55584726    -0.48500
O742        O  0.67158005  0.10169434  0.55235558    -0.54800
C743        C  0.64282566  0.12483616  0.60842669     0.85200
O744        O  0.70181995  0.15367983  0.63061299    -0.56700
O745        O  0.72671219  0.14958248  0.56891515    -0.60000
In746      In  0.56408314  0.86822359  0.90765668     1.36900
C747        C  0.58905549  0.91433539  0.93701235     0.77700
O748        O  0.54434901  0.88476610  0.87957099    -0.60800
O749        O  0.51976256  0.84929263  0.90302395    -0.51700
C750        C  0.57680383  0.84669980  0.86347258     0.70300
O751        O  0.58718012  0.87167266  0.86600512    -0.46600
C752        C  0.56647460  0.84004603  0.95153662     0.75000
O753        O  0.56588203  0.89559412  0.94269252    -0.58400
O754        O  0.54519570  0.83925613  0.94430680    -0.48500
O755        O  0.59959021  0.90995188  0.91520603    -0.54800
C756        C  0.52095738  0.86670695  0.88582711     0.85200
O757        O  0.56044448  0.83348199  0.88327257    -0.56700
O758        O  0.58649626  0.85530022  0.93614393    -0.60000
In759      In  0.43454095  0.13229738  0.67558598     1.36900
C760        C  0.40070185  0.08445033  0.69893121     0.77700
O761        O  0.45609892  0.11395817  0.65445084    -0.60800
O762        O  0.47858595  0.14878067  0.67971877    -0.51700
C763        C  0.42388562  0.15252948  0.62860034     0.70300
O764        O  0.40578334  0.13484136  0.64436263    -0.46600
C765        C  0.43903727  0.16660826  0.71615823     0.75000
O766        O  0.40606328  0.08754836  0.67209823    -0.58400
O767        O  0.45383294  0.15669397  0.71550800    -0.48500
O768        O  0.41191372  0.10576125  0.71324644    -0.54800
C769        C  0.47869185  0.13105270  0.66413785     0.85200
O770        O  0.44701198  0.15863474  0.63620186    -0.56700
O771        O  0.42239605  0.15929073  0.69566048    -0.60000
In772      In  0.30718391  0.86423496  0.82996053     1.36900
C773        C  0.31792252  0.91159648  0.80870635     0.77700
O774        O  0.33510786  0.84943440  0.82074974    -0.60800
O775        O  0.34930191  0.88441076  0.84619599    -0.51700
C776        C  0.27924922  0.84267197  0.87892614     0.70300
O777        O  0.29755539  0.83897239  0.87032996    -0.46600
C778        C  0.27760649  0.83052480  0.78847120     0.75000
O779        O  0.32614500  0.90923230  0.83325707    -0.58400
O780        O  0.26776137  0.83449108  0.81102462    -0.48500
O781        O  0.30301310  0.88977111  0.79630768    -0.54800
C782        C  0.35436014  0.86788634  0.83457577     0.85200
O783        O  0.27625380  0.85875712  0.86340004    -0.56700
O784        O  0.30271872  0.84295928  0.78792386    -0.60000
In785      In  0.30320244  0.43882700  0.76035251     1.36900
C786        C  0.31800548  0.40717015  0.78600062     0.77700
O787        O  0.33755027  0.45824839  0.72847079    -0.60800
O788        O  0.33849563  0.48032470  0.76547816    -0.51700
C789        C  0.26994721  0.43274184  0.71690074     0.70300
O790        O  0.27826486  0.41672008  0.72067211    -0.46600
C791        C  0.27081946  0.43655520  0.80247696     0.75000
O792        O  0.30531236  0.40088575  0.76218967    -0.58400
O793        O  0.29202953  0.45783825  0.79585109    -0.48500
O794        O  0.32356449  0.42964182  0.79555067    -0.54800
C795        C  0.35016971  0.47971823  0.74262608     0.85200
O796        O  0.27952789  0.45195620  0.73458565    -0.56700
O797        O  0.26639859  0.41658790  0.78748683    -0.60000
In798      In  0.42454047  0.29833998  0.92750002     1.36900
C799        C  0.39687729  0.31620505  0.89886808     0.77700
O800        O  0.44619120  0.33703595  0.95275886    -0.60800
O801        O  0.46854366  0.32227441  0.93248403    -0.51700
C802        C  0.40935562  0.26220843  0.97030670     0.70300
O803        O  0.40460712  0.28101128  0.97152538    -0.46600
C804        C  0.42895600  0.27269238  0.88253686     0.75000
O805        O  0.38729301  0.30078530  0.92055463    -0.58400
O806        O  0.44873699  0.29218617  0.89456816    -0.48500
O807        O  0.42045385  0.32276615  0.89291034    -0.54800
C808        C  0.46894059  0.34067350  0.94709394     0.85200
O809        O  0.42113467  0.26213257  0.94752629    -0.56700
O810        O  0.40668662  0.26627243  0.89377808    -0.60000
In811      In  0.69092884  0.55446994  0.49908781     1.36900
C812        C  0.67217413  0.58326755  0.52348690     0.77700
O813        O  0.65075938  0.53057993  0.97896153    -0.60800
O814        O  0.66087187  0.51145614  0.50433683    -0.51700
C815        C  0.72104005  0.55952121  0.95935491     0.70300
O816        O  0.71397185  0.57602733  0.96605821    -0.46600
C817        C  0.72292691  0.55645405  0.54089895     0.75000
O818        O  0.68195885  0.58806954  0.49809348    -0.58400
O819        O  0.70141272  0.53554336  0.53452206    -0.48500
O820        O  0.67228663  0.56409461  0.53582493    -0.54800
C821        C  0.64274635  0.50842479  0.99123043     0.85200
O822        O  0.71070126  0.53898677  0.97506899    -0.56700
O823        O  0.72791821  0.57658746  0.52588115    -0.60000
In824      In  0.56104445  0.69128795  0.66033572     1.36900
C825        C  0.58760276  0.67222482  0.63157048     0.77700
O826        O  0.54221472  0.65459175  0.68891483    -0.60800
O827        O  0.51754616  0.66041696  0.65981791    -0.51700
C828        C  0.57122461  0.72601979  0.70376227     0.70300
O829        O  0.58730712  0.71839450  0.69696007    -0.46600
C830        C  0.56434908  0.72374045  0.61833728     0.75000
O831        O  0.59486928  0.68289285  0.65649575    -0.58400
O832        O  0.54271754  0.70296148  0.62507668    -0.48500
O833        O  0.56695237  0.67131864  0.62210985    -0.54800
C834        C  0.51907312  0.64564131  0.67881429     0.85200
O835        O  0.54995222  0.71490979  0.68924280    -0.56700
O836        O  0.58414657  0.72787296  0.63341757    -0.60000
In837      In  0.86166547  0.30254625  0.84348474     1.36900
C838        C  0.90940171  0.32006812  0.86829266     0.77700
O839        O  0.87734489  0.34006022  0.81685960    -0.60800
O840        O  0.85070355  0.33345974  0.85153390    -0.51700
C841        C  0.83801646  0.27025147  0.79770284     0.70300
O842        O  0.85746394  0.27113923  0.81077833    -0.46600
C843        C  0.82887863  0.27145086  0.88470241     0.75000
O844        O  0.90553218  0.31457835  0.84143445    -0.58400
O845        O  0.82919940  0.29201040  0.87571800    -0.48500
O846        O  0.88910160  0.31664996  0.88162707    -0.54800
C847        C  0.86441126  0.34839711  0.83089383     0.85200
O848        O  0.83151065  0.28621783  0.80758323    -0.56700
O849        O  0.84492361  0.26644612  0.87184337    -0.60000
In850      In  0.12802516  0.43895723  0.50813303     1.36900
C851        C  0.08110937  0.40961944  0.98208413     0.77700
O852        O  0.10984325  0.45809728  0.53489387    -0.60800
O853        O  0.14096970  0.48131954  0.01019513    -0.51700
C854        C  0.15332490  0.43268058  0.55375791     0.70300
O855        O  0.12913749  0.41612986  0.54820093    -0.46600
C856        C  0.15548072  0.43532878  0.96634561     0.75000
O857        O  0.08745100  0.40086296  0.50434984    -0.58400
O858        O  0.15476223  0.45610447  0.97213078    -0.48500
O859        O  0.09857879  0.43311330  0.97560085    -0.54800
C860        C  0.12409086  0.48084235  0.52358151     0.85200
O861        O  0.16384697  0.45197006  0.53626905    -0.56700
O862        O  0.14212446  0.41605869  0.98341590    -0.60000
In863      In  0.12548436  0.69392133  0.58161069     1.36900
C864        C  0.07989463  0.67980191  0.60924124     0.77700
O865        O  0.10569736  0.65516531  0.55702747    -0.60800
O866        O  0.13356560  0.66118878  0.59019240    -0.51700
C867        C  0.14926526  0.72349274  0.53445022     0.70300
O868        O  0.13121167  0.72500215  0.54795933    -0.46600
C869        C  0.16164207  0.72563345  0.61978817     0.75000
O870        O  0.08197429  0.68269214  0.58187828    -0.58400
O871        O  0.15802907  0.70309573  0.61290994    -0.48500
O872        O  0.10111686  0.68501576  0.62175972    -0.54800
C873        C  0.11790164  0.64591873  0.57084160     0.85200
O874        O  0.15361744  0.70592331  0.54413764    -0.56700
O875        O  0.14699305  0.73222127  0.60640259    -0.60000
In876      In  0.86300668  0.55625896  0.75165386     1.36900
C877        C  0.91067185  0.58470753  0.72620221     0.77700
O878        O  0.87776701  0.53641029  0.78210268    -0.60800
O879        O  0.84580274  0.51218491  0.75377351    -0.51700
C880        C  0.83952994  0.56766351  0.79477349     0.70300
O881        O  0.86450507  0.57781435  0.79363152    -0.46600
C882        C  0.83539469  0.55654773  0.70625183     0.75000
O883        O  0.90276443  0.59440541  0.74566764    -0.58400
O884        O  0.83643374  0.53619521  0.71333822    -0.48500
O885        O  0.89459274  0.56052280  0.72089806    -0.54800
C886        C  0.86142847  0.51318340  0.77330216     0.85200
O887        O  0.82711559  0.55203926  0.77411012    -0.56700
O888        O  0.84868205  0.57663696  0.72231611    -0.60000
C889        C  0.96763766  0.60357826  0.67311992    -0.27500
C890        C  0.98322644  0.63115109  0.67730231     0.02100
C891        C  0.97538979  0.64339014  0.69829903     0.30100
C892        C  0.95196743  0.62803310  0.71444366    -0.19300
C893        C  0.93616303  0.60037629  0.71011555    -0.28700
C894        C  0.94435175  0.58820640  0.68922889     0.44200
C895        C  0.00789361  0.64651258  0.65991227     0.05400
O896        O  0.98986913  0.67046397  0.70224418    -0.57300
H897        H  0.94598291  0.63788586  0.73007840     0.18300
O898        O  0.92995724  0.56123825  0.68451528    -0.64000
H899        H  0.97365629  0.59386435  0.65731751     0.16800
C900        C  0.03296418  0.65929317  0.67346829     0.29000
C901        C  0.05612077  0.67117087  0.65656296    -0.24900
C902        C  0.05487412  0.67018246  0.62594074    -0.24100
C903        C  0.02974028  0.65794514  0.61235940     0.40500
C904        C  0.00651336  0.64617229  0.62935050    -0.26600
O905        O  0.03507167  0.65911014  0.70320381    -0.58500
H906        H  0.07517322  0.68034274  0.66757478     0.16100
O907        O  0.02755295  0.65585381  0.58262965    -0.59900
H908        H  0.98730870  0.63607954  0.61863962     0.14500
H909        H  0.91870041  0.55881546  0.66729628     0.46400
H910        H  0.03512167  0.64253117  0.70774498     0.41800
H911        H  0.02618555  0.67132692  0.57624487     0.45200
H912        H  0.99913026  0.67319712  0.72113569     0.36700
C913        C  0.13088994  0.54916125  0.52112056    -0.27500
C914        C  0.11547918  0.54793260  0.54513845     0.02100
C915        C  0.10250333  0.52440605  0.56176207     0.30100
C916        C  0.10539264  0.50267650  0.55447536    -0.19300
C917        C  0.12127461  0.50405626  0.53077688    -0.28700
C918        C  0.13379141  0.52751912  0.51380609     0.44200
C919        C  0.11372750  0.57166302  0.55276372     0.05400
O920        O  0.08614117  0.52215300  0.58441344    -0.57300
H921        H  0.09520377  0.48472388  0.56748604     0.18300
O922        O  0.16294133  0.53372306  0.01291734    -0.64000
H923        H  0.15246556  0.57007366  0.02929527     0.16800
C924        C  0.12253715  0.58416748  0.58003394     0.29000
C925        C  0.12290924  0.60784778  0.58588738    -0.24900
C926        C  0.11484308  0.61965070  0.56475585    -0.24100
C927        C  0.10566613  0.60696197  0.53759559     0.40500
C928        C  0.10514921  0.58314440  0.53179871    -0.26600
O929        O  0.13181494  0.57399502  0.60073417    -0.58500
H930        H  0.13012740  0.61733566  0.60686364     0.16100
O931        O  0.09806189  0.61808990  0.51620398    -0.59900
H932        H  0.09854568  0.57386772  0.51062735     0.14500
H933        H  0.15808364  0.53462850  0.99243811     0.46400
H934        H  0.15068253  0.58080922  0.59550628     0.41800
H935        H  0.11452625  0.62980662  0.50504265     0.45200
H936        H  0.09524685  0.52141605  0.60229021     0.36700
C937        C  0.88087033  0.41413628  0.79578472    -0.27500
C938        C  0.86364277  0.42001924  0.81087091     0.02100
C939        C  0.84678484  0.40245800  0.83244575     0.30100
C940        C  0.84752169  0.37943702  0.83895441    -0.19300
C941        C  0.86467152  0.37330104  0.82379777    -0.28700
C942        C  0.88122230  0.39079799  0.80178953     0.44200
C943        C  0.86254077  0.44391436  0.80292396     0.05400
O944        O  0.82924007  0.40742943  0.84695187    -0.57300
H945        H  0.83435240  0.36618089  0.85569060     0.18300
O946        O  0.89783106  0.38537010  0.78601817    -0.64000
H947        H  0.89367419  0.42742727  0.77884435     0.16800
C948        C  0.88321279  0.46954238  0.81053339     0.29000
C949        C  0.88227750  0.49196875  0.80149992    -0.24900
C950        C  0.86102823  0.48917805  0.78442774    -0.24100
C951        C  0.84005804  0.46333797  0.77741478     0.40500
C952        C  0.84094441  0.44099580  0.78669726    -0.26600
O953        O  0.90420915  0.47279480  0.82706235    -0.58500
H954        H  0.89851037  0.51157917  0.80732924     0.16100
O955        O  0.81878206  0.45961959  0.76109670    -0.59900
H956        H  0.82492462  0.42128964  0.78077944     0.14500
H957        H  0.88764018  0.37610440  0.76825873     0.46400
H958        H  0.91827415  0.47580757  0.81286462     0.41800
H959        H  0.80547854  0.45833332  0.77543738     0.45200
H960        H  0.83965402  0.41959965  0.86308991     0.36700
C961        C  0.98303019  0.34687176  0.88458801    -0.27500
C962        C  0.98377346  0.35104275  0.91484161     0.02100
C963        C  0.95998791  0.34425483  0.92946385     0.30100
C964        C  0.93610492  0.33381200  0.91396136    -0.19300
C965        C  0.93521565  0.32990649  0.88364675    -0.28700
C966        C  0.95900305  0.33634063  0.86899536     0.44200
C967        C  0.00957624  0.36469424  0.93073974     0.05400
O968        O  0.96023667  0.34955464  0.95861971    -0.57300
H969        H  0.91823507  0.32927583  0.92580971     0.18300
O970        O  0.95912799  0.33275954  0.83949950    -0.64000
H971        H  0.00122558  0.35218883  0.87297145     0.16800
C972        C  0.01419790  0.35316409  0.95535594     0.29000
C973        C  0.03743180  0.36788511  0.97196969    -0.24900
C974        C  0.05654929  0.39415194  0.96429728    -0.24100
C975        C  0.05222820  0.40526083  0.93896791     0.40500
C976        C  0.02904218  0.39051660  0.92245898    -0.26600
O977        O  0.99602166  0.32757990  0.96351051    -0.58500
H978        H  0.04043393  0.35872844  0.99095231     0.16100
O979        O  0.07054037  0.43053790  0.92996494    -0.59900
H980        H  0.02586399  0.39965825  0.90356295     0.14500
H981        H  0.96330708  0.35000965  0.83078717     0.46400
H982        H  0.99947077  0.31607005  0.95055898     0.41800
H983        H  0.06427532  0.44211019  0.93813531     0.45200
H984        H  0.95130239  0.33192640  0.96835551     0.36700
C985        C  0.78096437  0.57996503  0.59317172    -0.27500
C986        C  0.77305113  0.55668256  0.60924634     0.02100
C987        C  0.74872749  0.53350526  0.60284116     0.30100
C988        C  0.73271753  0.53377340  0.58044144    -0.19300
C989        C  0.74059199  0.55699618  0.56416072    -0.28700
C990        C  0.76503230  0.58022790  0.57061768     0.44200
C991        C  0.78977714  0.55703931  0.63346941     0.05400
O992        O  0.73981863  0.51097516  0.61943563    -0.57300
H993        H  0.71390961  0.51576690  0.57607719     0.18300
O994        O  0.77336150  0.60339893  0.55544959    -0.64000
H995        H  0.79959786  0.59797657  0.59812396     0.16800
C996        C  0.79993756  0.53977218  0.63376312     0.29000
C997        C  0.81449026  0.53947753  0.65778454    -0.24900
C998        C  0.81974795  0.55685980  0.68129016    -0.24100
C999        C  0.80999323  0.57450317  0.68064592     0.40500
C1000       C  0.79516039  0.57451174  0.65682486    -0.26600
O1001       O  0.79594658  0.52333292  0.61056340    -0.58500
H1002       H  0.82208456  0.52599074  0.65779641     0.16100
O1003       O  0.81440101  0.59148559  0.70341411    -0.59900
H1004       H  0.78740210  0.58786505  0.65680798     0.14500
H1005       H  0.78442558  0.60296498  0.53931729     0.46400
H1006       H  0.81128041  0.53387814  0.59740240     0.41800
H1007       H  0.79961422  0.58107879  0.71726070     0.45200
H1008       H  0.74118073  0.49798727  0.60672262     0.36700
C1009       C  0.78550162  0.57149892  0.83652504    -0.27500
C1010       C  0.79450155  0.57424998  0.86537605     0.02100
C1011       C  0.81987049  0.57754844  0.87047122     0.30100
C1012       C  0.83513157  0.57686663  0.84716936    -0.19300
C1013       C  0.82538607  0.57264776  0.81855209    -0.28700
C1014       C  0.80071671  0.57081115  0.81329293     0.44200
C1015       C  0.77649020  0.57166105  0.88992439     0.05400
O1016       O  0.82961857  0.58067821  0.89825047    -0.57300
H1017       H  0.85408029  0.57843728  0.85166018     0.18300
O1018       O  0.79093108  0.56766122  0.78551475    -0.64000
H1019       H  0.76609520  0.56881773  0.83201163     0.16800
C1020       C  0.76398044  0.58690426  0.89112712     0.29000
C1021       C  0.74625381  0.58310704  0.91394521    -0.24900
C1022       C  0.74020699  0.56378422  0.93555329    -0.24100
C1023       C  0.75294840  0.54872634  0.93438562     0.40500
C1024       C  0.77074013  0.55267755  0.91179278    -0.26600
O1025       O  0.76957743  0.60611175  0.87057509    -0.58500
H1026       H  0.73698431  0.59511366  0.91450803     0.16100
O1027       O  0.74823202  0.53000922  0.95524513    -0.59900
H1028       H  0.77980759  0.54048326  0.91113088     0.14500
H1029       H  0.79861884  0.58599587  0.77776744     0.46400
H1030       H  0.75348455  0.59876015  0.85813075     0.41800
H1031       H  0.76054351  0.54006727  0.97143119     0.45200
H1032       H  0.83863528  0.60007901  0.90212494     0.36700
C1033       C  0.65204617  0.63466635  0.54067437    -0.27500
C1034       C  0.64020618  0.62596388  0.56819930     0.02100
C1035       C  0.63872918  0.60323965  0.58055790     0.30100
C1036       C  0.64909355  0.58964281  0.56560203    -0.19300
C1037       C  0.66128959  0.59838681  0.53820045    -0.28700
C1038       C  0.66274899  0.62120462  0.52577699     0.44200
C1039       C  0.62825834  0.63977442  0.58349642     0.05400
O1040       O  0.62603835  0.59346473  0.60669033    -0.57300
H1041       H  0.64738763  0.57201534  0.57554556     0.18300
O1042       O  0.67429280  0.63038976  0.49904574    -0.64000
H1043       H  0.65308830  0.65201996  0.53079691     0.16800
C1044       C  0.63789752  0.65206196  0.61074498     0.29000
C1045       C  0.62476326  0.66284406  0.62602745    -0.24900
C1046       C  0.60182757  0.66152754  0.61458137    -0.24100
C1047       C  0.59256407  0.64964706  0.58690272     0.40500
C1048       C  0.60583512  0.63904767  0.57163563    -0.26600
O1049       O  0.65988728  0.65319440  0.62286423    -0.58500
H1050       H  0.63237536  0.67194949  0.64707274     0.16100
O1051       O  0.56996451  0.64732182  0.57495548    -0.59900
H1052       H  0.59807242  0.62945180  0.55081380     0.14500
H1053       H  0.69350150  0.64243470  0.50310458     0.46400
H1054       H  0.67526421  0.66982912  0.61521220     0.41800
H1055       H  0.57632797  0.66244886  0.56118654     0.45200
H1056       H  0.64041220  0.59788782  0.62100435     0.36700
C1057       C  0.54251516  0.39044823  0.95659657    -0.27500
C1058       C  0.54213582  0.41247676  0.96810637     0.02100
C1059       C  0.51750033  0.41052007  0.97376654     0.30100
C1060       C  0.49371729  0.38683082  0.96752826    -0.19300
C1061       C  0.49410681  0.36482062  0.95570922    -0.28700
C1062       C  0.51886608  0.36673128  0.95067518     0.44200
C1063       C  0.56764359  0.43720695  0.97436496     0.05400
O1064       O  0.51644522  0.43164126  0.98528926    -0.57300
H1065       H  0.47495966  0.38582794  0.97156447     0.18300
O1066       O  0.52030329  0.34571512  0.93948921    -0.64000
H1067       H  0.56130289  0.39170674  0.95193762     0.16800
C1068       C  0.58668506  0.43663979  0.99258250     0.29000
C1069       C  0.61093439  0.45999203  0.99784034    -0.24900
C1070       C  0.61681428  0.48421347  0.98494802    -0.24100
C1071       C  0.59759762  0.48482352  0.96689972     0.40500
C1072       C  0.57329005  0.46139219  0.96163290    -0.26600
O1073       O  0.58132747  0.41349487  0.00618585    -0.58500
H1074       H  0.62685884  0.46257906  0.50928486     0.16100
O1075       O  0.60230661  0.50810560  0.95424562    -0.59900
H1076       H  0.55886604  0.46206273  0.94739831     0.14500
H1077       H  0.51976236  0.33516252  0.95666642     0.46400
H1078       H  0.59038630  0.40843288  0.49381297     0.41800
H1079       H  0.59515080  0.51587118  0.96819758     0.45200
H1080       H  0.52006364  0.43154780  0.00637401     0.36700
C1081       C  0.19239351  0.41351760  0.91590251    -0.27500
C1082       C  0.20102852  0.43301069  0.89409622     0.02100
C1083       C  0.19356676  0.45239440  0.89545388     0.30100
C1084       C  0.17851361  0.45271413  0.91898641    -0.19300
C1085       C  0.17061521  0.43380742  0.94138765    -0.28700
C1086       C  0.17738448  0.41385837  0.93951752     0.44200
C1087       C  0.21883962  0.43373844  0.87073210     0.05400
O1088       O  0.20031885  0.47061694  0.87341804    -0.57300
H1089       H  0.17300549  0.46783306  0.91966381     0.18300
O1090       O  0.16993142  0.39493003  0.96086080    -0.64000
H1091       H  0.19796767  0.39845209  0.91502660     0.16800
C1092       C  0.24466916  0.45593208  0.86765848     0.29000
C1093       C  0.26125134  0.45665257  0.84525790    -0.24900
C1094       C  0.25268510  0.43517195  0.82590399    -0.24100
C1095       C  0.22691297  0.41268491  0.82936696     0.40500
C1096       C  0.21027359  0.41207735  0.85173265    -0.26600
O1097       O  0.25401978  0.47690588  0.88672565    -0.58500
H1098       H  0.28102693  0.47397959  0.84327963     0.16100
O1099       O  0.21771676  0.39120484  0.81104747    -0.59900
H1100       H  0.19050783  0.39478129  0.85405163     0.14500
H1101       H  0.18439286  0.40294818  0.97553413     0.46400
H1102       H  0.26120329  0.47178560  0.90343640     0.41800
H1103       H  0.20820936  0.39460421  0.79531476     0.45200
H1104       H  0.21374541  0.48799584  0.88188026     0.36700
C1105       C  0.20757814  0.44973254  0.61010195    -0.27500
C1106       C  0.19837929  0.42547294  0.62461219     0.02100
C1107       C  0.17398752  0.40322923  0.61584311     0.30100
C1108       C  0.15912317  0.40571826  0.59311836    -0.19300
C1109       C  0.16855499  0.43010861  0.57842139    -0.28700
C1110       C  0.19319626  0.45212640  0.58715848     0.44200
C1111       C  0.21439710  0.42461548  0.64943242     0.05400
O1112       O  0.16404801  0.37935640  0.63007332    -0.57300
H1113       H  0.14032624  0.38849497  0.58684188     0.18300
O1114       O  0.20319854  0.47646722  0.57397789    -0.64000
H1115       H  0.22623726  0.46705657  0.61658143     0.16800
C1116       C  0.22671516  0.40921173  0.64850723     0.29000
C1117       C  0.24429224  0.41147447  0.67082617    -0.24900
C1118       C  0.25034695  0.42944671  0.69403058    -0.24100
C1119       C  0.23755827  0.44446616  0.69505788     0.40500
C1120       C  0.21988619  0.44195980  0.67299781    -0.26600
O1121       O  0.22257273  0.39270809  0.62534612    -0.58500
H1122       H  0.25382110  0.39973618  0.66948864     0.16100
O1123       O  0.24253889  0.46215378  0.71724164    -0.59900
H1124       H  0.21078535  0.45412003  0.67397588     0.14500
H1125       H  0.21589446  0.47720198  0.55913313     0.46400
H1126       H  0.23571409  0.40421127  0.61041982     0.41800
H1127       H  0.22873494  0.45189229  0.73213049     0.45200
H1128       H  0.16715977  0.36786790  0.61671212     0.36700
C1129       C  0.41845617  0.54301032  0.74389025    -0.27500
C1130       C  0.42526802  0.54652140  0.71427350     0.02100
C1131       C  0.40788599  0.52722149  0.69414663     0.30100
C1132       C  0.38384490  0.50518208  0.70371733    -0.19300
C1133       C  0.37640562  0.50233212  0.73321059    -0.28700
C1134       C  0.39415557  0.52139203  0.75336626     0.44200
C1135       C  0.44955437  0.57136276  0.70453836     0.05400
O1136       O  0.41450748  0.52955773  0.66517357    -0.57300
H1137       H  0.37068310  0.49065765  0.68788303     0.18300
O1138       O  0.38818562  0.51884983  0.78250036    -0.64000
H1139       H  0.43165447  0.55760619  0.75965168     0.16800
C1140       C  0.44738870  0.58944232  0.68614432     0.29000
C1141       C  0.47015076  0.61326364  0.67785985    -0.24900
C1142       C  0.49549390  0.61997324  0.68809446    -0.24100
C1143       C  0.49767027  0.60196249  0.70679846     0.40500
C1144       C  0.47479718  0.57796054  0.71496504    -0.26600
O1145       O  0.42296290  0.58434473  0.67670581    -0.58500
H1146       H  0.46783459  0.62676269  0.66367938     0.16100
O1147       O  0.52192896  0.60767662  0.71750407    -0.59900
H1148       H  0.47676244  0.56444023  0.72947652     0.14500
H1149       H  0.38109923  0.53082115  0.78614794     0.46400
H1150       H  0.41536263  0.58918895  0.69328024     0.41800
H1151       H  0.52838835  0.59908485  0.70378816     0.45200
H1152       H  0.40212507  0.53387218  0.65520893     0.36700
C1153       C  0.37773287  0.34781398  0.83836360    -0.27500
C1154       C  0.35464935  0.34610723  0.84967007     0.02100
C1155       C  0.34482087  0.33357374  0.87677344     0.30100
C1156       C  0.35827182  0.32323639  0.89229617    -0.19300
C1157       C  0.38201286  0.32587286  0.88152060    -0.28700
C1158       C  0.39156805  0.33816190  0.85411795     0.44200
C1159       C  0.34282373  0.35996280  0.83424494     0.05400
O1160       O  0.32197510  0.33118746  0.88809786    -0.57300
H1161       H  0.35045745  0.31375320  0.91314285     0.18300
O1162       O  0.41435329  0.34074535  0.84234225    -0.64000
H1163       H  0.38562291  0.35757497  0.81764268     0.16800
C1164       C  0.34517028  0.38324846  0.84614493     0.29000
C1165       C  0.33681905  0.39807475  0.83020443    -0.24900
C1166       C  0.32573418  0.39004886  0.80221795    -0.24100
C1167       C  0.32242478  0.36610530  0.79072269     0.40500
C1168       C  0.33139268  0.35152360  0.80650745    -0.26600
O1169       O  0.35623705  0.39208031  0.87314991    -0.58500
H1170       H  0.33929052  0.41615126  0.83981233     0.16100
O1171       O  0.31113989  0.35711701  0.76386207    -0.59900
H1172       H  0.32956980  0.33367001  0.79702780     0.14500
H1173       H  0.42873542  0.35888773  0.84786999     0.46400
H1174       H  0.37572517  0.40243258  0.86979693     0.41800
H1175       H  0.29188285  0.34510660  0.76772948     0.45200
H1176       H  0.32793124  0.34451720  0.90400085     0.36700
C1177       C  0.25104096  0.79926873  0.94634472    -0.27500
C1178       C  0.22477483  0.79414637  0.94650630     0.02100
C1179       C  0.21732003  0.80681324  0.92563725     0.30100
C1180       C  0.23573918  0.82374336  0.90476749    -0.19300
C1181       C  0.26162650  0.82792484  0.90381129    -0.28700
C1182       C  0.26932657  0.81583621  0.92519006     0.44200
C1183       C  0.20526840  0.77526619  0.96817658     0.05400
O1184       O  0.19178630  0.80204242  0.92481121    -0.57300
H1185       H  0.22931696  0.83263924  0.88842944     0.18300
O1186       O  0.29452824  0.81969134  0.92537884    -0.64000
H1187       H  0.25736707  0.79020416  0.96257942     0.16800
C1188       C  0.19923703  0.75239649  0.47289675     0.29000
C1189       C  0.18136152  0.73477528  0.49366178    -0.24900
C1190       C  0.16531814  0.74138440  0.51021707    -0.24100
C1191       C  0.17293544  0.76587752  0.00694051     0.40500
C1192       C  0.19069096  0.78306467  0.98571957    -0.26600
O1193       O  0.21399432  0.74478212  0.45670571    -0.58500
H1194       H  0.18036614  0.71592642  0.49707908     0.16100
O1195       O  0.15964430  0.77455587  0.02408891    -0.59900
H1196       H  0.19358191  0.80284005  0.98346884     0.14500
H1197       H  0.30554716  0.83668917  0.93596458     0.46400
H1198       H  0.22736364  0.74520121  0.47033250     0.41800
H1199       H  0.17142785  0.78320092  0.04109091     0.45200
H1200       H  0.18265671  0.78823445  0.90960007     0.36700
C1201       C  0.25635236  0.79461752  0.71595861    -0.27500
C1202       C  0.22944123  0.78722194  0.71508735     0.02100
C1203       C  0.21811653  0.79271803  0.73918969     0.30100
C1204       C  0.23386991  0.80594811  0.76342303    -0.19300
C1205       C  0.26100742  0.81406357  0.76397194    -0.28700
C1206       C  0.27210547  0.80785885  0.74014471     0.44200
C1207       C  0.21317720  0.77258692  0.68949446     0.05400
O1208       O  0.19147326  0.78429088  0.73969306    -0.57300
H1209       H  0.22486235  0.81028309  0.78161179     0.18300
O1210       O  0.29836981  0.81490152  0.74002839    -0.64000
H1211       H  0.26523342  0.79023056  0.69767973     0.16800
C1212       C  0.19844377  0.78150811  0.67391709     0.29000
C1213       C  0.18212681  0.76631962  0.65083558    -0.24900
C1214       C  0.18068748  0.74245609  0.64253494    -0.24100
C1215       C  0.19662405  0.73438214  0.65715600     0.40500
C1216       C  0.21248236  0.74929165  0.68054826    -0.26600
O1217       O  0.19984833  0.80500062  0.68106122    -0.58500
H1218       H  0.17037438  0.77312465  0.63963168     0.16100
O1219       O  0.19639088  0.71159226  0.64934896    -0.59900
H1220       H  0.22397493  0.74236547  0.69210230     0.14500
H1221       H  0.29867998  0.79958833  0.74892160     0.46400
H1222       H  0.21458106  0.81876060  0.66906888     0.41800
H1223       H  0.21035207  0.71724984  0.63418669     0.45200
H1224       H  0.19048088  0.80074352  0.73900567     0.36700
C1225       C  0.45105519  0.20162487  0.78890652    -0.27500
C1226       C  0.43810726  0.21599496  0.78465986     0.02100
C1227       C  0.42683883  0.21528251  0.75741166     0.30100
C1228       C  0.42807927  0.19976471  0.73496464    -0.19300
C1229       C  0.44026261  0.18462964  0.73941094    -0.28700
C1230       C  0.45200140  0.18580998  0.76661579     0.44200
C1231       C  0.43566054  0.23084817  0.80923062     0.05400
O1232       O  0.41502309  0.23006944  0.75245678    -0.57300
H1233       H  0.41915444  0.19930673  0.71413798     0.18300
O1234       O  0.46364090  0.17094773  0.77202744    -0.64000
H1235       H  0.45969117  0.20200124  0.80990498     0.16800
C1236       C  0.41056844  0.22338040  0.82100422     0.29000
C1237       C  0.40866842  0.23721580  0.84481451    -0.24900
C1238       C  0.43161789  0.25849688  0.85734178    -0.24100
C1239       C  0.45678134  0.26584864  0.84552588     0.40500
C1240       C  0.45862265  0.25191048  0.82175877    -0.26600
O1241       O  0.38781079  0.20235630  0.80963296    -0.58500
H1242       H  0.38916363  0.23113936  0.85358148     0.16100
O1243       O  0.47974961  0.28629629  0.85724974    -0.59900
H1244       H  0.47803803  0.25760675  0.81298400     0.14500
H1245       H  0.44902105  0.15356644  0.77924329     0.46400
H1246       H  0.38671469  0.18621058  0.81811944     0.41800
H1247       H  0.48317482  0.30241618  0.84637235     0.45200
H1248       H  0.39562936  0.21703652  0.75190721     0.36700
C1249       C  0.40969343  0.20486643  0.50800560    -0.27500
C1250       C  0.40569812  0.20972503  0.53686642     0.02100
C1251       C  0.40140581  0.23092519  0.54289058     0.30100
C1252       C  0.40277580  0.24788165  0.52026956    -0.19300
C1253       C  0.40297764  0.24222117  0.99356585    -0.28700
C1254       C  0.40267515  0.21838346  0.98719998     0.44200
C1255       C  0.40952548  0.19457049  0.56040275     0.05400
O1256       O  0.39794646  0.23644886  0.57102785    -0.57300
H1257       H  0.40079377  0.26489018  0.52544292     0.18300
O1258       O  0.40467156  0.21165107  0.95908293    -0.64000
H1259       H  0.41285621  0.18853968  0.50303382     0.16800
C1260       C  0.38855303  0.17657607  0.57849300     0.29000
C1261       C  0.39322694  0.16245604  0.60019024    -0.24900
C1262       C  0.41873477  0.16599064  0.60414213    -0.24100
C1263       C  0.43954216  0.18375174  0.58555820     0.40500
C1264       C  0.43477319  0.19765065  0.56391116    -0.26600
O1265       O  0.36346988  0.17259490  0.57508165    -0.58500
H1266       H  0.37693147  0.14898504  0.61418409     0.16100
O1267       O  0.46462090  0.18750155  0.58805095    -0.59900
H1268       H  0.45102123  0.21117191  0.54987139     0.14500
H1269       H  0.38615374  0.20193713  0.95164202     0.46400
H1270       H  0.35434845  0.15729250  0.56153429     0.41800
H1271       H  0.47478734  0.20396493  0.59977723     0.45200
H1272       H  0.37841237  0.22765208  0.57365553     0.36700
C1273       C  0.36595032  0.01044153  0.71645993    -0.27500
C1274       C  0.35603964  0.00984963  0.74451866     0.02100
C1275       C  0.35889954  0.03343571  0.75624748     0.30100
C1276       C  0.37274126  0.05737382  0.74073142    -0.19300
C1277       C  0.38357678  0.05825571  0.71311537    -0.28700
C1278       C  0.37959480  0.03436823  0.70075627     0.44200
C1279       C  0.34455074  0.98507779  0.76217697     0.05400
O1280       O  0.34864928  0.03337324  0.78314105    -0.59700
H1281       H  0.37534108  0.07542528  0.75056351     0.18300
O1282       O  0.38988821  0.03430906  0.67392487    -0.64000
H1283       H  0.36404332  0.99249006  0.70716581     0.16800
C1284       C  0.32257530  0.96113269  0.75227195     0.29000
C1285       C  0.31333376  0.93766759  0.76845069    -0.24900
C1286       C  0.32598476  0.93745757  0.79443673    -0.24100
C1287       C  0.34771211  0.96159555  0.80459382     0.40500
C1288       C  0.35664581  0.98513862  0.78862966    -0.26600
O1289       O  0.30980658  0.96057002  0.72699241    -0.58500
H1290       H  0.29657366  0.91940959  0.76018550     0.16100
O1291       O  0.36097909  0.96231443  0.82951275    -0.59900
H1292       H  0.37375272  0.00337658  0.79640614     0.14500
H1293       H  0.40840124  0.03870445  0.67772046     0.46400
H1294       H  0.31608461  0.95263978  0.71219371     0.41800
H1295       H  0.37544938  0.95934367  0.82298751     0.45200
H1296       H  0.33017189  0.02910372  0.77936604     0.36700
C1297       C  0.59038381  0.82803847  0.78841333    -0.27500
C1298       C  0.58623221  0.80249011  0.79392140     0.02100
C1299       C  0.58137648  0.79285284  0.82264923     0.30100
C1300       C  0.57939865  0.80800412  0.84509727    -0.19300
C1301       C  0.58261084  0.83317572  0.83960889    -0.28700
C1302       C  0.58905031  0.84356255  0.81110972     0.44200
C1303       C  0.58377898  0.78461727  0.76949775     0.05400
O1304       O  0.57756754  0.76816334  0.82883182    -0.57300
H1305       H  0.57471508  0.79971779  0.86687666     0.18300
O1306       O  0.59223344  0.86796863  0.80480114    -0.64000
H1307       H  0.59394965  0.83563602  0.76633971     0.16800
C1308       C  0.56042213  0.77216303  0.75269887     0.29000
C1309       C  0.55681696  0.75330826  0.73154874    -0.24900
C1310       C  0.57636362  0.74649230  0.72639638    -0.24100
C1311       C  0.60019111  0.75961270  0.74270012     0.40500
C1312       C  0.60358946  0.77824299  0.76430872    -0.26600
O1313       O  0.54037507  0.77735340  0.75780190    -0.58500
H1314       H  0.53839470  0.74377389  0.71931151     0.16100
O1315       O  0.62006764  0.75408540  0.73816031    -0.59900
H1316       H  0.62163561  0.78759742  0.77720156     0.14500
H1317       H  0.61157297  0.88077766  0.80696266     0.46400
H1318       H  0.54392768  0.79209019  0.74434746     0.41800
H1319       H  0.63127546  0.76648019  0.72253573     0.45200
H1320       H  0.55812392  0.75571702  0.82699427     0.36700
C1321       C  0.58884764  0.80114474  0.50334030    -0.27500
C1322       C  0.56943486  0.79241854  0.52521844     0.02100
C1323       C  0.55042347  0.80035700  0.52455791     0.30100
C1324       C  0.55059746  0.81634690  0.50181273    -0.19300
C1325       C  0.56770824  0.82434767  0.97612263    -0.28700
C1326       C  0.58821235  0.81839846  0.97835611     0.44200
C1327       C  0.56868483  0.77453424  0.54837839     0.05400
O1328       O  0.53205818  0.79312031  0.54652026    -0.57300
H1329       H  0.53576186  0.82223052  0.50165756     0.18300
O1330       O  0.60752928  0.82662876  0.95734655    -0.64000
H1331       H  0.60349692  0.79501162  0.50361882     0.16800
C1332       C  0.54651099  0.74869883  0.55136008     0.29000
C1333       C  0.54527232  0.73253661  0.57442322    -0.24900
C1334       C  0.56630926  0.74149613  0.59437672    -0.24100
C1335       C  0.58898832  0.76708021  0.59075092     0.40500
C1336       C  0.58996705  0.78343886  0.56791987    -0.26600
O1337       O  0.52598855  0.73903609  0.53171587    -0.58500
H1338       H  0.52789987  0.71278733  0.57646161     0.16100
O1339       O  0.60990064  0.77665657  0.60987922    -0.59900
H1340       H  0.60718921  0.80327222  0.56570984     0.14500
H1341       H  0.62296807  0.84309724  0.96521035     0.46400
H1342       H  0.53104190  0.73072887  0.51608275     0.41800
H1343       H  0.62279221  0.77252834  0.60081781     0.45200
H1344       H  0.51499392  0.77902305  0.53810723     0.36700
C1345       C  0.42607471  0.89125863  0.85510376    -0.27500
C1346       C  0.42823515  0.86941305  0.84630919     0.02100
C1347       C  0.40676599  0.84813813  0.83162445     0.30100
C1348       C  0.38311039  0.84823529  0.82732722    -0.19300
C1349       C  0.38040743  0.86947726  0.83737670    -0.28700
C1350       C  0.40243126  0.89143441  0.85074528     0.44200
C1351       C  0.45209011  0.86809425  0.85451767     0.05400
O1352       O  0.40856334  0.82691413  0.82184299    -0.57300
H1353       H  0.36663756  0.83131833  0.81661532     0.18300
O1354       O  0.40113204  0.91316965  0.85964614    -0.64000
H1355       H  0.44247047  0.90785885  0.86630222     0.16800
C1356       C  0.47791832  0.88850087  0.84697819     0.29000
C1357       C  0.50010847  0.88752570  0.85680453    -0.24900
C1358       C  0.49704008  0.86639648  0.87436867    -0.24100
C1359       C  0.47107902  0.84574816  0.88145944     0.40500
C1360       C  0.44895149  0.84666961  0.87142499    -0.26600
O1361       O  0.48169399  0.90961057  0.83025621    -0.58500
H1362       H  0.51980072  0.90359530  0.85098559     0.16100
O1363       O  0.46700026  0.82459720  0.89830082    -0.59900
H1364       H  0.42920656  0.83090123  0.87759123     0.14500
H1365       H  0.39642868  0.91011058  0.88060488     0.46400
H1366       H  0.48069047  0.90366270  0.80982712     0.41800
H1367       H  0.46531746  0.82956710  0.91850973     0.45200
H1368       H  0.41573840  0.83178186  0.80178167     0.36700
C1369       C  0.77520892  0.20500208  0.00516695    -0.27500
C1370       C  0.76333395  0.21000048  0.98141363     0.02100
C1371       C  0.73557646  0.19878108  0.98083652     0.30100
C1372       C  0.72002748  0.18266939  0.00388240    -0.19300
C1373       C  0.73492894  0.17832800  0.52775662    -0.28700
C1374       C  0.76283084  0.19026927  0.52744375     0.44200
C1375       C  0.78000240  0.22589111  0.95670262     0.05400
O1376       O  0.72342260  0.20224848  0.95708666    -0.57300
H1377       H  0.69861186  0.17372705  0.00283793     0.18300
O1378       O  0.77597172  0.18624574  0.54975840    -0.64000
H1379       H  0.79893257  0.21537098  0.50391272     0.16800
C1380       C  0.78157935  0.24986614  0.94855028     0.29000
C1381       C  0.79721475  0.26425450  0.92473794    -0.24900
C1382       C  0.81164885  0.25516990  0.90892363    -0.24100
C1383       C  0.81003942  0.23113306  0.91721257     0.40500
C1384       C  0.79443858  0.21681792  0.94106499    -0.26600
O1385       O  0.76816208  0.25953515  0.96390704    -0.58500
H1386       H  0.79832459  0.28277559  0.91892057     0.16100
O1387       O  0.82369880  0.22146546  0.90234708    -0.59900
H1388       H  0.79333548  0.19836235  0.94720591     0.14500
H1389       H  0.77952513  0.20024207  0.56430138     0.46400
H1390       H  0.78030120  0.27014084  0.97997312     0.41800
H1391       H  0.81198092  0.21119192  0.88584724     0.45200
H1392       H  0.71781086  0.21486167  0.96351527     0.36700
C1393       C  0.79380919  0.23983716  0.73143684    -0.27500
C1394       C  0.78997909  0.21402459  0.73081338     0.02100
C1395       C  0.80399855  0.20758418  0.75109083     0.30100
C1396       C  0.82071811  0.22646917  0.77190117    -0.19300
C1397       C  0.82327441  0.25172803  0.77336748    -0.28700
C1398       C  0.80989730  0.25838421  0.75256347     0.44200
C1399       C  0.77050390  0.19407604  0.70962259     0.05400
O1400       O  0.80074611  0.18261151  0.75154451    -0.57300
H1401       H  0.83070846  0.22089964  0.78778509     0.18300
O1402       O  0.81202643  0.28289384  0.75292167    -0.64000
H1403       H  0.78386631  0.24557422  0.71567276     0.16800
C1404       C  0.74501781  0.19086923  0.70638247     0.29000
C1405       C  0.72791651  0.17459267  0.68438291    -0.24900
C1406       C  0.73527866  0.16064150  0.66532913    -0.24100
C1407       C  0.76002567  0.16235708  0.66959837     0.40500
C1408       C  0.77745640  0.17904993  0.69154223    -0.26600
O1409       O  0.73673916  0.20405015  0.72428821    -0.58500
H1410       H  0.70886224  0.17331952  0.68188047     0.16100
O1411       O  0.76786242  0.14874605  0.65179102    -0.59900
H1412       H  0.79686112  0.18106412  0.69360869     0.14500
H1413       H  0.82855570  0.29479569  0.74196693     0.46400
H1414       H  0.72842325  0.19209651  0.74123888     0.41800
H1415       H  0.77791066  0.16126111  0.63574838     0.45200
H1416       H  0.78451254  0.17165585  0.76335143     0.36700
C1417       C  0.57595968  0.10520186  0.64307805    -0.27500
C1418       C  0.57335569  0.12713552  0.63582006     0.02100
C1419       C  0.59369321  0.14817683  0.61965521     0.30100
C1420       C  0.61603708  0.14704808  0.61092006    -0.19300
C1421       C  0.61865308  0.12505086  0.61796822    -0.28700
C1422       C  0.59835356  0.10404955  0.63432842     0.44200
C1423       C  0.54903265  0.12760105  0.64422685     0.05400
O1424       O  0.59174931  0.16980288  0.61187811    -0.57300
H1425       H  0.63135078  0.16349950  0.59845015     0.18300
O1426       O  0.59988319  0.08206953  0.64144879    -0.64000
H1427       H  0.56057143  0.08890119  0.65564098     0.16800
C1428       C  0.52363615  0.10685408  0.63589017     0.29000
C1429       C  0.50100506  0.10826195  0.64260349    -0.24900
C1430       C  0.50313234  0.13021258  0.65767398    -0.24100
C1431       C  0.52862280  0.15105132  0.66597340     0.40500
C1432       C  0.55123089  0.14948516  0.65950127    -0.26600
O1433       O  0.52087876  0.08580337  0.61976763    -0.58500
H1434       H  0.48171353  0.09215147  0.63570727     0.16100
O1435       O  0.53178656  0.17318844  0.68010047    -0.59900
H1436       H  0.57062621  0.16561470  0.66611251     0.14500
H1437       H  0.60859659  0.08612952  0.66080800     0.46400
H1438       H  0.51403166  0.07064570  0.63355920     0.41800
H1439       H  0.53463847  0.18607217  0.66442698     0.45200
H1440       H  0.58136350  0.16455280  0.59352528     0.36700
C1441       C  0.64355270  0.98466653  0.46604454    -0.27500
C1442       C  0.62638682  0.98444146  0.99202966     0.02100
C1443       C  0.60288160  0.96124635  0.00066828     0.30100
C1444       C  0.59103945  0.93887391  0.98236829    -0.19300
C1445       C  0.60240049  0.93883802  0.95533604    -0.28700
C1446       C  0.62604342  0.96205097  0.94672232     0.44200
C1447       C  0.64435265  0.01062883  0.51003019     0.05400
O1448       O  0.59054683  0.96077795  0.02628895    -0.57300
H1449       H  0.57279575  0.92140678  0.98950040     0.18300
O1450       O  0.64289194  0.96151180  0.42267673    -0.64000
H1451       H  0.66233179  0.00158849  0.45913694     0.16800
C1452       C  0.65234250  0.01127823  0.53912528     0.29000
C1453       C  0.66138980  0.03449566  0.55593790    -0.24900
C1454       C  0.66245910  0.05722940  0.54414327    -0.24100
C1455       C  0.65532387  0.05668040  0.51457560     0.40500
C1456       C  0.64636513  0.03357452  0.49793543    -0.26600
O1457       O  0.65196427  0.98951771  0.55097980    -0.58500
H1458       H  0.66729998  0.03458093  0.57830491     0.16100
O1459       O  0.65635924  0.07839670  0.50174423    -0.59900
H1460       H  0.63154116  0.03129860  0.97687069     0.14500
H1461       H  0.63016249  0.97023530  0.90653447     0.46400
H1462       H  0.63810258  0.98285849  0.56634276     0.41800
H1463       H  0.67436440  0.08859032  0.49297608     0.45200
H1464       H  0.59242192  0.94815915  0.03908533     0.36700
loop_ 
_geom_bond_atom_site_label_1 
_geom_bond_atom_site_label_2 
_geom_bond_distance 
_geom_bond_site_symmetry_2 
_ccdc_geom_bond_type 
In1           O3   2.264       .  S
In1           O4   2.233       .  S
In1          O12   2.240       .  S
In1           O6   2.299       .  S
In1           O8   2.302       .  S
In1           O9   2.238       .  S
In1          O10   2.228       .  S
In1          O13   2.242       .  S
C2            O8   1.268       .  A
C2           O10   1.256       .  A
C2          C722   1.497       .  S
O3           C11   1.266       .  A
O4           C11   1.262       .  A
C5           O12   1.259       .  A
C5            O6   1.267       .  A
C5          C674   1.494       .  S
C7            O9   1.260       .  A
C7           O13   1.261       .  A
C7          C641   1.475       .  S
C11         C689   1.488       .  S
In14         O16   2.246       .  S
In14         O17   2.257       .  S
In14         O25   2.232       .  S
In14         O19   2.283       .  S
In14         O21   2.228       .  S
In14         O22   2.234       .  S
In14         O23   2.278       .  S
In14         O26   2.240       .  S
C15          O21   1.259       .  A
C15          O23   1.266       .  A
C15         C713   1.488       .  S
O16          C24   1.261       .  A
O17          C24   1.261       .  A
C18          O25   1.258       .  A
C18          O19   1.266       .  A
C18         C569   1.484       .  S
C20          O22   1.265       .  A
C20          O26   1.263       .  A
C20         C593   1.478       .  S
C24         C626   1.486       .  S
In27         O29   2.260       .  S
In27         O30   2.242       .  S
In27         O38   2.236       .  S
In27         O32   2.271       .  S
In27         O34   2.278       .  S
In27         O35   2.236       .  S
In27         O36   2.232       .  S
In27         O39   2.231       .  S
C28          O34   1.263       .  A
C28          O36   1.255       .  A
C28         C545   1.482       .  S
O29          C37   1.263       .  A
O30          C37   1.259       .  A
C31          O38   1.259       .  A
C31          O32   1.262       .  A
C31         C530   1.486       .  S
C33          O35   1.262       .  A
C33          O39   1.262       .  A
C33         C497   1.473       .  S
C37         C698   1.485       .  S
In40         O42   2.252       .  S
In40         O43   2.254       .  S
In40         O51   2.279       .  S
In40         O45   2.254       .  S
In40         O47   2.265       .  S
In40         O48   2.243       .  S
In40         O49   2.248       .  S
In40         O52   2.230       .  S
C41          O47   1.261       .  A
C41          O49   1.257       .  A
C41         C554   1.485       .  S
O42          C50   1.260       .  A
O43          C50   1.262       .  A
C44          O51   1.261       .  A
C44          O45   1.258       .  A
C44         C449   1.490       .  S
C46          O48   1.262       .  A
C46          O52   1.260       .  A
C46         C473   1.476       .  S
C50         C617   1.485       .  S
In53         O55   2.259       .  S
In53         O56   2.253       .  S
In53         O64   2.236       .  S
In53         O58   2.272       .  S
In53         O60   2.283       .  S
In53         O61   2.249       .  S
In53         O62   2.227       .  S
In53         O65   2.234       .  S
C54          O60   1.266       .  A
C54          O62   1.259       .  A
C54         C434   1.490       .  S
O55          C63   1.263       .  A
O56          C63   1.262       .  A
C57          O64   1.261       .  A
C57          O58   1.267       .  A
C57         C386   1.492       .  S
C59          O61   1.265       .  A
C59          O65   1.261       .  A
C59         C362   1.482       .  S
C63         C401   1.487       .  S
In66         O68   2.268       .  S
In66         O69   2.222       .  S
In66         O77   2.226       .  S
In66         O71   2.299       .  S
In66         O73   2.279       .  S
In66         O74   2.223       .  S
In66         O75   2.232       .  S
In66         O78   2.241       .  S
C67          O73   1.265       .  A
C67          O75   1.257       .  A
C67         C425   1.488       .  S
O68          C76   1.263       .  A
O69          C76   1.257       .  A
C70          O77   1.255       .  A
C70          O71   1.265       .  A
C70         C521   1.488       .  S
C72          O74   1.261       .  A
C72          O78   1.265       .  A
C72         C506   1.476       .  S
C76         C329   1.481       .  S
In79         O82   2.232       .  S
In79         O86   2.265       .  S
In79         O87   2.226       .  S
In79         O88   2.237       .  S
In79         O91   2.241       .  S
In79        O813   2.253   1_554  S
In79        O822   2.240   1_554  S
In79        O816   2.282   1_554  S
C80          O86   1.265       .  A
C80          O88   1.259       .  A
C80         C305   1.487       .  S
O81        In811   2.257       .  S
O81          C89   1.263       .  A
O82         C821   1.260   1_554  A
C83          O90   1.258       .  A
C83          O84   1.265       .  A
C83         C290   1.488       .  S
O84        In811   2.274       .  S
C85          O87   1.262       .  A
C85          O91   1.263       .  A
C85         C257   1.477       .  S
C89         O814   1.259       .  A
C89         C338   1.480       .  S
O90        In811   2.231       .  S
In92         O94   2.263       .  S
In92         O95   2.250       .  S
In92        O103   2.246       .  S
In92         O97   2.284       .  S
In92         O99   2.268       .  S
In92        O100   2.240       .  S
In92        O101   2.227       .  S
In92        O104   2.238       .  S
C93          O99   1.268       .  A
C93         O101   1.259       .  A
C93         C314   1.487       .  S
O94         C102   1.262       .  A
O95         C102   1.263       .  A
C96         O103   1.261       .  A
C96          O97   1.266       .  A
C96         C578   1.497       .  S
C98         O100   1.265       .  A
C98         O104   1.262       .  A
C98         C602   1.481       .  S
C102        C410   1.490       .  S
In105       O107   2.248       .  S
In105       O108   2.231       .  S
In105       O116   2.248       .  S
In105       O110   2.282       .  S
In105       O112   2.291       .  S
In105       O113   2.229       .  S
In105       O114   2.240       .  S
In105       O117   2.226       .  S
C106        O112   1.267       .  A
C106        O114   1.257       .  A
C106        C233   1.495       .  S
O107        C115   1.265       .  A
O108        C115   1.261       .  A
C109        O116   1.258       .  A
C109        O110   1.265       .  A
C109        C665   1.490       .  S
C111        O113   1.261       .  A
C111        O117   1.261       .  A
C111        C650   1.473       .  S
C115        C209   1.481       .  S
In118       O120   2.257       .  S
In118       O129   2.217       .  S
In118       O123   2.290       .  S
In118       O125   2.278       .  S
In118       O853   2.231       .  S
In118       O858   2.233   1_554  S
In118       O859   2.220   1_554  S
In118       O862   2.238   1_554  S
C119        O127   1.258       .  A
C119        O857   1.267       .  A
C119        C242   1.492       .  S
O120        C128   1.265       .  A
O121       In850   2.236       .  S
O121        C860   1.260       .  A
C122        O129   1.259       .  A
C122        O123   1.269       .  A
C122        C377   1.494       .  S
C124        O126   1.261       .  A
C124        O130   1.262       .  A
C124        C353   1.475       .  S
O125        C851   1.269   1_554  A
O126       In850   2.235       .  S
O127       In850   2.227       .  S
C128        O853   1.262       .  A
C128        C185   1.485       .  S
O130       In850   2.238       .  S
In131       O133   2.261       .  S
In131       O134   2.229       .  S
In131       O142   2.237       .  S
In131       O136   2.266       .  S
In131       O138   2.278       .  S
In131       O139   2.229       .  S
In131       O140   2.231       .  S
In131       O143   2.239       .  S
C132        O138   1.263       .  A
C132        O140   1.255       .  A
C132        C170   1.484       .  S
O133        C141   1.264       .  A
O134        C141   1.260       .  A
C135        O142   1.258       .  A
C135        O136   1.263       .  A
C135        C458   1.483       .  S
C137        O139   1.261       .  A
C137        O143   1.263       .  A
C137        C482   1.477       .  S
C141        C194   1.481       .  S
In144       O146   2.251       .  S
In144       O147   2.231       .  S
In144       O155   2.231       .  S
In144       O149   2.277       .  S
In144       O151   2.272       .  S
In144       O152   2.239       .  S
In144       O153   2.232       .  S
In144       O156   2.221       .  S
C145        O151   1.264       .  A
C145        O153   1.258       .  A
C145        C161   1.486       .  S
O146        C154   1.261       .  A
O147        C154   1.259       .  A
C148        O155   1.256       .  A
C148        O149   1.265       .  A
C148        C281   1.481       .  S
C150        O152   1.263       .  A
C150        O156   1.262       .  A
C150        C266   1.475       .  S
C154        C218   1.477       .  S
C157        C158   1.400       .  A
C157        C162   1.398       .  A
C157        H167   1.084       .  S
C158        C163   1.482   1_655  S
C158        C159   1.408       .  A
C159        C160   1.406       .  A
C159        O164   1.372       .  S
C160        C161   1.407       .  A
C160        H165   1.083       .  S
C161        C162   1.413       .  A
C162        O166   1.372       .  S
C163        C168   1.406       .  A
C163        C172   1.405       .  A
O164        H180   0.992   1_655  S
O166        H177   0.992       .  S
C168        C169   1.400       .  A
C168        O173   1.372       .  S
C169        C170   1.408       .  A
C169        H174   1.084       .  S
C170        C171   1.409       .  A
C171        C172   1.402       .  A
C171        O175   1.371       .  S
C172        H176   1.084   1_455  S
O173        H178   0.992       .  S
O175        H179   0.991       .  S
C181        C182   1.399       .  A
C181        C186   1.399       .  A
C181        H923   1.084       .  S
C182        C187   1.476       .  S
C182        C183   1.405       .  A
C183        C184   1.404       .  A
C183        O188   1.371       .  S
C184        C185   1.408       .  A
C184        H189   1.083       .  S
C185        C186   1.413       .  A
C186        O922   1.372       .  S
C187        C192   1.403       .  A
C187        C196   1.403       .  A
O188        H204   0.992       .  S
O190        C918   1.372       .  S
O190        H201   0.992       .  S
H191        C913   1.084       .  S
C192        C193   1.399       .  A
C192        O197   1.372       .  S
C193        C194   1.406       .  A
C193        H198   1.083       .  S
C194        C195   1.411       .  A
C195        C196   1.403       .  A
C195        O199   1.372       .  S
C196        H200   1.084       .  S
O197        H202   0.992       .  S
O199        H203   0.992       .  S
C205        C206   1.401       .  A
C205        C210   1.399       .  A
C205        H215   1.084       .  S
C206        C211   1.476       .  S
C206        C207   1.406       .  A
C207        C208   1.399       .  A
C207        O212   1.372       .  S
C208        C209   1.408       .  A
C208        H213   1.083       .  S
C209        C210   1.411       .  A
C210        O214   1.371       .  S
C211        C216   1.406       .  A
C211        C220   1.401       .  A
O212        H228   0.992       .  S
O214        H225   0.992       .  S
C216        C217   1.400       .  A
C216        O221   1.372       .  S
C217        C218   1.405       .  A
C217        H222   1.083       .  S
C218        C219   1.411       .  A
C219        C220   1.398       .  A
C219        O223   1.372       .  S
C220        H224   1.084       .  S
O221        H226   0.992       .  S
O223        H227   0.992       .  S
C229        C230   1.408       .  A
C229        C234   1.408       .  A
C229        H239   1.083       .  S
C230        C235   1.494   1_655  S
C230        C231   1.408       .  A
C231        C232   1.403       .  A
C231        O236   1.372       .  S
C232        C233   1.409       .  A
C232        H237   1.083       .  S
C233        C234   1.411       .  A
C234        O238   1.371       .  S
C235        C240   1.412       .  A
C235        C244   1.402       .  A
O236        H252   0.992       .  S
O238        H249   0.992       .  S
C240        C241   1.408       .  A
C240        O245   1.371   1_455  S
C241        C242   1.406       .  A
C241        H246   1.083       .  S
C242        C243   1.415       .  A
C243        C244   1.401       .  A
C243        O247   1.372       .  S
C244        H248   1.084       .  S
O245        H250   0.992       .  S
O247        H251   0.992       .  S
C253        C254   1.403       .  A
C253        C258   1.399       .  A
C253        H263   1.084       .  S
C254        C259   1.476       .  S
C254        C255   1.405       .  A
C255        C256   1.398       .  A
C255        O260   1.373       .  S
C256        C257   1.405       .  A
C256        H261   1.083       .  S
C257        C258   1.411       .  A
C258        O262   1.372       .  S
C259        C264   1.408       .  A
C259        C268   1.400       .  A
O260        H276   0.992       .  S
O262        H273   0.992       .  S
C264        C265   1.400       .  A
C264        O269   1.372       .  S
C265        C266   1.405       .  A
C265        H270   1.084       .  S
C266        C267   1.410       .  A
C267        C268   1.395       .  A
C267        O271   1.372       .  S
C268        H272   1.084       .  S
O269        H274   0.992       .  S
O271        H275   0.992       .  S
C277        C278   1.402       .  A
C277        C282   1.401       .  A
C277        H287   1.084       .  S
C278        C283   1.485       .  S
C278        C279   1.409       .  A
C279        C280   1.404       .  A
C279        O284   1.371       .  S
C280        C281   1.403       .  A
C280        H285   1.083       .  S
C281        C282   1.412       .  A
C282        O286   1.372       .  S
C283        C288   1.408       .  A
C283        C292   1.401       .  A
O284        H300   0.992       .  S
O286        H297   0.992       .  S
C288        C289   1.406       .  A
C288        O293   1.371       .  S
C289        C290   1.407       .  A
C289        H294   1.083       .  S
C290        C291   1.415       .  A
C291        C292   1.399       .  A
C291        O295   1.372       .  S
C292        H296   1.084       .  S
O293        H298   0.992       .  S
O295        H299   0.992       .  S
C301        C302   1.405       .  A
C301        C306   1.403       .  A
C301        H311   1.083       .  S
C302        C307   1.487       .  S
C302        C303   1.408       .  A
C303        C304   1.402       .  A
C303        O308   1.373       .  S
C304        C305   1.408       .  A
C304        H309   1.083       .  S
C305        C306   1.410       .  A
C306        O310   1.371       .  S
C307        C312   1.410       .  A
C307        C316   1.402       .  A
O308        H324   0.992       .  S
O310        H321   0.992       .  S
C312        C313   1.403       .  A
C312        O317   1.371       .  S
C313        C314   1.405       .  A
C313        H318   1.083       .  S
C314        C315   1.415       .  A
C315        C316   1.400       .  A
C315        O319   1.372       .  S
C316        H320   1.084       .  S
O317        H322   0.992       .  S
O319        H323   0.992       .  S
C325        C326   1.399       .  A
C325        C330   1.396       .  A
C325        H335   1.084       .  S
C326        C331   1.475       .  S
C326        C327   1.406       .  A
C327        C328   1.402       .  A
C327        O332   1.372       .  S
C328        C329   1.406       .  A
C328        H333   1.083       .  S
C329        C330   1.414       .  A
C330        O334   1.372       .  S
C331        C336   1.404       .  A
C331        C340   1.402       .  A
O332        H348   0.992       .  S
O334        H345   0.992       .  S
C336        C337   1.397       .  A
C336        O341   1.372       .  S
C337        C338   1.406       .  A
C337       H1074   1.083       .  S
C338        C339   1.412       .  A
C339        C340   1.402       .  A
C339        O343   1.371       .  S
C340        H344   1.084       .  S
O341       H1078   0.992       .  S
H342       C1069   1.083   1_554  S
O343        H347   0.992       .  S
H346       O1073   0.992   1_556  S
C349        C350   1.403       .  A
C349        C354   1.399       .  A
C349        H359   1.084       .  S
C350        C355   1.480       .  S
C350        C351   1.407       .  A
C351        C352   1.400       .  A
C351        O356   1.373       .  S
C352        C353   1.404       .  A
C352        H357   1.084       .  S
C353        C354   1.409       .  A
C354        O358   1.372       .  S
C355        C360   1.408       .  A
C355        C364   1.402       .  A
O356        H372   0.992       .  S
O358        H369   0.992       .  S
C360        C361   1.399       .  A
C360        O365   1.372       .  S
C361        C362   1.404       .  A
C361        H366   1.083       .  S
C362        C363   1.414       .  A
C363        C364   1.400       .  A
C363        O367   1.372       .  S
C364        H368   1.084       .  S
O365        H370   0.992       .  S
O367        H371   0.992       .  S
C373        C374   1.400       .  A
C373        C378   1.397       .  A
C373        H383   1.084       .  S
C374        C379   1.492       .  S
C374        C375   1.412       .  A
C375        C376   1.412       .  A
C375        O380   1.372       .  S
C376        C377   1.408       .  A
C376        H381   1.083       .  S
C377        C378   1.415       .  A
C378        O382   1.372       .  S
C379        C384   1.410       .  A
C379        C388   1.404       .  A
O380        H396   0.992       .  S
O382        H393   0.992       .  S
C384        C385   1.407       .  A
C384        O389   1.371       .  S
C385        C386   1.407       .  A
C385        H390   1.083       .  S
C386        C387   1.414       .  A
C387        C388   1.401       .  A
C387        O391   1.372       .  S
C388        H392   1.084       .  S
O389        H394   0.992       .  S
O391        H395   0.992       .  S
C397        C398   1.402       .  A
C397        C402   1.404       .  A
C397        H407   1.084       .  S
C398        C403   1.485       .  S
C398        C399   1.408       .  A
C399        C400   1.404       .  A
C399        O404   1.372       .  S
C400        C401   1.406       .  A
C400        H405   1.083       .  S
C401        C402   1.412       .  A
C402        O406   1.371       .  S
C403        C408   1.407       .  A
C403        C412   1.404       .  A
O404        H420   0.992       .  S
O406        H417   0.992       .  S
C408        C409   1.400       .  A
C408        O413   1.371       .  S
C409        C410   1.406       .  A
C409        H414   1.083       .  S
C410        C411   1.415       .  A
C411        C412   1.407       .  A
C411        O415   1.371       .  S
C412        H416   1.084       .  S
O413        H418   0.992       .  S
O415        H419   0.992       .  S
C421        C422   1.400       .  A
C421        C426   1.401       .  A
C421        H431   1.084       .  S
C422        C427   1.487       .  S
C422        C423   1.410       .  A
C423        C424   1.407       .  A
C423        O428   1.372       .  S
C424        C425   1.405       .  A
C424        H429   1.083       .  S
C425        C426   1.414       .  A
C426        O430   1.372       .  S
C427        C432   1.405       .  A
C427        C436   1.407       .  A
O428        H444   0.992       .  S
O430        H441   0.992       .  S
C432        C433   1.398       .  A
C432        O437   1.372       .  S
C433        C434   1.407       .  A
C433        H438   1.083       .  S
C434        C435   1.412       .  A
C435        C436   1.409       .  A
C435        O439   1.371       .  S
C436        H440   1.083       .  S
O437        H442   0.992       .  S
O439        H443   0.992       .  S
C445        C446   1.405       .  A
C445        C450   1.401       .  A
C445        H455   1.083       .  S
C446        C451   1.494       .  S
C446        C447   1.411       .  A
C447        C448   1.406       .  A
C447        O452   1.372       .  S
C448        C449   1.407       .  A
C448        H453   1.083       .  S
C449        C450   1.412       .  A
C450        O454   1.371       .  S
C451        C460   1.407       .  A
C451       C1188   1.410       .  A
O452        H468   0.992       .  S
O454        H465   0.992       .  S
C456        C457   1.401       .  A
C456       C1183   1.410       .  A
C456        O461   1.372       .  S
C457        C458   1.405   1_556  A
C457        H462   1.084       .  S
C458       C1191   1.411       .  A
C459        C460   1.407       .  A
C459       C1190   1.411       .  A
C459        O463   1.371       .  S
C460        H464   1.083       .  S
O461        H466   0.992       .  S
O463        H467   0.992       .  S
C469        C470   1.402       .  A
C469        C474   1.398       .  A
C469        H479   1.083       .  S
C470        C475   1.480       .  S
C470        C471   1.409       .  A
C471        C472   1.397       .  A
C471        O476   1.372       .  S
C472        C473   1.403       .  A
C472        H477   1.083       .  S
C473        C474   1.412       .  A
C474        O478   1.372       .  S
C475        C480   1.408       .  A
C475        C484   1.402       .  A
O476        H492   0.992       .  S
O478        H489   0.992       .  S
C480        C481   1.399       .  A
C480        O485   1.372       .  S
C481        C482   1.405       .  A
C481        H486   1.083       .  S
C482        C483   1.411       .  A
C483        C484   1.397       .  A
C483        O487   1.371       .  S
C484        H488   1.084       .  S
O485        H490   0.992       .  S
O487        H491   0.991       .  S
C493        C494   1.402       .  A
C493        C498   1.398       .  A
C493        H503   1.084       .  S
C494        C499   1.474       .  S
C494        C495   1.406       .  A
C495        C496   1.397       .  A
C495        O500   1.373       .  S
C496        C497   1.403       .  A
C496        H501   1.084       .  S
C497        C498   1.411       .  A
C498        O502   1.372       .  S
C499        C504   1.407       .  A
C499        C508   1.400       .  A
O500        H516   0.992       .  S
O502        H513   0.992       .  S
C504        C505   1.396       .  A
C504        O509   1.372       .  S
C505        C506   1.404       .  A
C505        H510   1.083       .  S
C506        C507   1.413       .  A
C507        C508   1.398       .  A
C507        O511   1.372       .  S
C508        H512   1.084       .  S
O509        H514   0.992       .  S
O511        H515   0.992       .  S
C517        C518   1.397       .  A
C517       C1254   1.396   1_554  A
C517        H527   1.084       .  S
C518        C523   1.478       .  S
C518        C519   1.408       .  A
C519        C520   1.407       .  A
C519        O524   1.371       .  S
C520       C1253   1.406   1_554  A
C520        H525   1.083       .  S
C521        C522   1.413       .  A
C521       C1252   1.407       .  A
C522       C1249   1.397       .  A
C522        O526   1.372       .  S
C523        C528   1.406       .  A
C523        C532   1.400       .  A
O524        H540   0.991       .  S
O526        H537   0.992       .  S
C528        C529   1.405       .  A
C528        O533   1.371       .  S
C529        C530   1.409       .  A
C529        H534   1.083       .  S
C530        C531   1.413       .  A
C531        C532   1.398       .  A
C531        O535   1.372       .  S
C532        H536   1.084       .  S
O533        H538   0.992       .  S
O535        H539   0.992       .  S
C541        C542   1.406       .  A
C541        C546   1.403       .  A
C541        H551   1.083   1_545  S
C542        C547   1.486   1_545  S
C542        C543   1.407       .  A
C543        C544   1.399       .  A
C543        O548   1.372       .  S
C544        C545   1.407       .  A
C544        H549   1.084       .  S
C545        C546   1.409       .  A
C546        O550   1.371       .  S
C547        C552   1.407       .  A
C547        C556   1.405       .  A
O548        H564   0.992       .  S
O550        H561   0.992       .  S
C552        C553   1.402       .  A
C552        O557   1.372       .  S
C553        C554   1.407       .  A
C553        H558   1.083       .  S
C554        C555   1.411       .  A
C555        C556   1.402       .  A
C555        O559   1.372       .  S
C556        H560   1.084   1_565  S
O557        H562   0.992       .  S
O559        H563   0.992       .  S
C565        C566   1.409       .  A
C565        C570   1.407       .  A
C565        H575   1.083       .  S
C566        C571   1.497       .  S
C566        C567   1.410       .  A
C567        C568   1.402       .  A
C567        O572   1.371       .  S
C568        C569   1.405       .  A
C568        H573   1.084       .  S
C569        C570   1.408       .  A
C570        O574   1.371       .  S
C571        C576   1.409       .  A
C571        C580   1.408       .  A
O572        H588   0.992       .  S
O574        H585   0.992       .  S
C576        C577   1.403       .  A
C576        O581   1.372       .  S
C577        C578   1.408       .  A
C577        H582   1.083       .  S
C578        C579   1.413       .  A
C579        C580   1.409       .  A
C579        O583   1.371       .  S
C580        H584   1.083       .  S
O581        H586   0.992       .  S
O583        H587   0.992       .  S
C589        C590   1.402       .  A
C589       C1326   1.402   1_554  A
C589        H599   1.084       .  S
C590        C595   1.481       .  S
C590        C591   1.407       .  A
C591        C592   1.400   1_554  A
C591        O596   1.373       .  S
C592       C1325   1.404       .  A
C592        H597   1.084       .  S
C593        C594   1.412       .  A
C593       C1324   1.404       .  A
C594       C1321   1.401       .  A
C594        O598   1.372       .  S
C595        C600   1.407       .  A
C595        C604   1.402       .  A
O596        H612   0.992       .  S
O598        H609   0.992       .  S
C600        C601   1.398       .  A
C600        O605   1.371       .  S
C601        C602   1.404       .  A
C601        H606   1.083       .  S
C602        C603   1.413       .  A
C603        C604   1.402       .  A
C603        O607   1.372       .  S
C604        H608   1.084       .  S
O605        H610   0.992       .  S
O607        H611   0.992       .  S
C613        C614   1.402       .  A
C613        C618   1.401       .  A
C613        H623   1.084       .  S
C614        C619   1.482       .  S
C614        C615   1.406       .  A
C615        C616   1.402       .  A
C615        O620   1.372       .  S
C616        C617   1.408       .  A
C616        H621   1.083       .  S
C617        C618   1.412       .  A
C618        O622   1.371       .  S
C619        C624   1.406       .  A
C619        C628   1.403       .  A
O620        H636   0.992       .  S
O622        H633   0.992       .  S
C624        C625   1.400       .  A
C624        O629   1.371       .  S
C625        C626   1.407       .  A
C625        H630   1.083       .  S
C626        C627   1.413       .  A
C627        C628   1.403       .  A
C627        O631   1.372       .  S
C628        H632   1.084       .  S
O629        H634   0.992       .  S
O631        H635   0.992       .  S
C637        C638   1.403       .  A
C637       C1374   1.398       .  A
C637       H1379   1.084       .  S
C638        C643   1.474       .  S
C638        C639   1.405       .  A
C639        C640   1.397       .  A
C639        O644   1.373       .  S
C640       C1373   1.404       .  A
C640        H645   1.084       .  S
C641        C642   1.410       .  A
C641       C1372   1.405       .  A
C642       C1369   1.398       .  A
C642        O646   1.372       .  S
C643        C648   1.407       .  A
C643        C652   1.401       .  A
O644        H660   0.992       .  S
O646        H657   0.992       .  S
H647       C1369   1.084       .  S
C648        C649   1.396       .  A
C648        O653   1.372       .  S
C649        C650   1.405       .  A
C649        H654   1.084       .  S
C650        C651   1.410       .  A
C651        C652   1.395       .  A
C651        O655   1.371       .  S
C652        H656   1.084       .  S
O653        H658   0.991       .  S
O655        H659   0.992       .  S
C661        C662   1.409       .  A
C661        C666   1.403       .  A
C661        H671   1.083       .  S
C662        C667   1.507       .  S
C662        C663   1.415       .  A
C663        C664   1.409       .  A
C663        O668   1.371       .  S
C664        C665   1.405       .  A
C664        H669   1.083       .  S
C665        C666   1.411       .  A
C666        O670   1.372       .  S
C667        C672   1.414       .  A
C667        C676   1.411       .  A
O668        H684   0.991       .  S
O670        H681   0.992       .  S
C672        C673   1.402       .  A
C672        O677   1.372       .  S
C673        C674   1.405       .  A
C673        H678   1.084       .  S
C674        C675   1.411       .  A
C675        C676   1.411       .  A
C675        O679   1.371       .  S
C676        H680   1.083       .  S
O677        H682   0.991       .  S
O679        H683   0.992       .  S
C685        C686   1.403       .  A
C685        C690   1.405       .  A
C685        H695   1.083       .  S
C686        C691   1.481       .  S
C686        C687   1.405       .  A
C687        C688   1.400       .  A
C687        O692   1.372       .  S
C688        C689   1.407       .  A
C688        H693   1.083       .  S
C689        C690   1.412       .  A
C690        O694   1.371       .  S
C691        C696   1.407       .  A
C691        C700   1.401       .  A
O692        H708   0.991       .  S
O694        H705   0.992       .  S
C696        C697   1.402       .  A
C696        O701   1.371       .  S
C697        C698   1.405       .  A
C697        H702   1.083       .  S
C698        C699   1.414       .  A
C699        C700   1.403       .  A
C699        O703   1.372       .  S
C700        H704   1.084       .  S
O701        H706   0.992       .  S
O703        H707   0.992       .  S
C709       C1442   1.407       .  A
C709       C1446   1.408       .  A
C709        H719   1.083   1_565  S
C710       C1447   1.486   1_565  S
C710        C711   1.405       .  A
C710       C1441   1.406       .  A
C711        C712   1.400       .  A
C711        O716   1.372       .  S
C712        C713   1.407       .  A
C712        H717   1.083       .  S
C713        C714   1.411       .  A
C714       C1441   1.407       .  A
C714       O1450   1.371       .  S
C715       C1442   1.492   1_544  S
C715        C720   1.411       .  A
C715        C724   1.400   1_554  A
O716        H732   0.992       .  S
O718       C1446   1.371       .  S
O718       H1461   0.992       .  S
C720        C721   1.411       .  A
C720        O725   1.372   1_545  S
C721        C722   1.407       .  A
C721        H726   1.083       .  S
C722        C723   1.417       .  A
C723        C724   1.401   1_554  A
C723        O727   1.372       .  S
C724       H1460   1.084       .  S
O725        H730   0.991       .  S
O727        H731   0.992   1_554  S
H728       C1456   1.084       .  S
H729       O1450   0.992       .  S
In733       O735   2.258       .  S
In733       O736   2.231       .  S
In733       O744   2.229       .  S
In733       O738   2.293       .  S
In733       O740   2.288       .  S
In733       O741   2.226       .  S
In733       O742   2.222       .  S
In733       O745   2.245       .  S
C734        O740   1.267       .  A
C734        O742   1.255       .  A
C734       C1454   1.489       .  S
O735        C743   1.266       .  A
O736        C743   1.261       .  A
C737        O744   1.258       .  A
C737        O738   1.265       .  A
C737       C1406   1.489       .  S
C739        O741   1.259       .  A
C739        O745   1.261       .  A
C739       C1373   1.472       .  S
C743       C1421   1.485       .  S
In746       O748   2.251       .  S
In746       O749   2.248       .  S
In746       O757   2.230       .  S
In746       O751   2.289       .  S
In746       O753   2.232       .  S
In746       O754   2.238       .  S
In746       O755   2.281       .  S
In746       O758   2.238       .  S
C747        O753   1.259       .  A
C747        O755   1.268       .  A
C747       C1445   1.491       .  S
O748        C756   1.261       .  A
O749        C756   1.261       .  A
C750        O757   1.258       .  A
C750        O751   1.267       .  A
C750       C1301   1.487       .  S
C752        O754   1.265       .  A
C752        O758   1.264       .  A
C752       C1325   1.480       .  S
C756       C1358   1.485       .  S
In759       O761   2.247       .  S
In759       O762   2.249       .  S
In759       O770   2.242       .  S
In759       O764   2.272       .  S
In759       O766   2.277       .  S
In759       O767   2.241       .  S
In759       O768   2.247       .  S
In759       O771   2.231       .  S
C760        O766   1.261       .  A
C760        O768   1.256       .  A
C760       C1277   1.484       .  S
O761        C769   1.262       .  A
O762        C769   1.261       .  A
C763        O770   1.259       .  A
C763        O764   1.263       .  A
C763       C1262   1.488       .  S
C765        O767   1.263       .  A
C765        O771   1.261       .  A
C765       C1229   1.475       .  S
C769       C1430   1.484       .  S
In772       O774   2.242       .  S
In772       O775   2.246       .  S
In772       O783   2.266       .  S
In772       O777   2.255       .  S
In772       O779   2.276       .  S
In772       O780   2.235       .  S
In772       O781   2.246       .  S
In772       O784   2.237       .  S
C773        O779   1.261       .  A
C773        O781   1.254       .  A
C773       C1286   1.485       .  S
O774        C782   1.262       .  A
O775        C782   1.262       .  A
C776        O783   1.261       .  A
C776        O777   1.258       .  A
C776       C1181   1.484       .  S
C778        O780   1.262       .  A
C778        O784   1.262       .  A
C778       C1205   1.476       .  S
C782       C1349   1.483       .  S
In785       O787   2.265       .  S
In785       O788   2.253       .  S
In785       O796   2.234       .  S
In785       O790   2.279       .  S
In785       O792   2.283       .  S
In785       O793   2.248       .  S
In785       O794   2.230       .  S
In785       O797   2.239       .  S
C786        O792   1.266       .  A
C786        O794   1.259       .  A
C786       C1166   1.490       .  S
O787        C795   1.263       .  A
O788        C795   1.262       .  A
C789        O796   1.261       .  A
C789        O790   1.267       .  A
C789       C1118   1.493       .  S
C791        O793   1.265       .  A
C791        O797   1.262       .  A
C791       C1094   1.483       .  S
C795       C1133   1.488       .  S
In798       O800   2.265       .  S
In798       O801   2.225       .  S
In798       O809   2.220       .  S
In798       O803   2.294       .  S
In798       O805   2.276       .  S
In798       O806   2.221       .  S
In798       O807   2.228       .  S
In798       O810   2.235       .  S
C799        O805   1.266       .  A
C799        O807   1.257       .  A
C799       C1157   1.487       .  S
O800        C808   1.262       .  A
O801        C808   1.256       .  A
C802        O809   1.253       .  A
C802        O803   1.264       .  A
C802       C1253   1.483       .  S
C804        O806   1.263       .  A
C804        O810   1.266       .  A
C804       C1238   1.477       .  S
C808       C1061   1.480       .  S
In811       O814   2.224       .  S
In811       O818   2.275       .  S
In811       O819   2.223       .  S
In811       O820   2.229       .  S
In811       O823   2.238       .  S
C812        O818   1.265       .  A
C812        O820   1.258       .  A
C812       C1037   1.487       .  S
O813        C821   1.262       .  A
C815        O822   1.259       .  A
C815        O816   1.265       .  A
C815       C1022   1.492       .  S
C817        O819   1.261       .  A
C817        O823   1.262       .  A
C817        C989   1.475       .  S
C821       C1070   1.480       .  S
In824       O826   2.262       .  S
In824       O827   2.244       .  S
In824       O835   2.235       .  S
In824       O829   2.283       .  S
In824       O831   2.273       .  S
In824       O832   2.232       .  S
In824       O833   2.229       .  S
In824       O836   2.229       .  S
C825        O831   1.268       .  A
C825        O833   1.258       .  A
C825       C1046   1.489       .  S
O826        C834   1.263       .  A
O827        C834   1.262       .  A
C828        O835   1.260       .  A
C828        O829   1.267       .  A
C828       C1310   1.494       .  S
C830        O832   1.265       .  A
C830        O836   1.262       .  A
C830       C1334   1.476       .  S
C834       C1142   1.489       .  S
In837       O839   2.255       .  S
In837       O840   2.233       .  S
In837       O848   2.241       .  S
In837       O842   2.284       .  S
In837       O844   2.288       .  S
In837       O845   2.230       .  S
In837       O846   2.230       .  S
In837       O849   2.234       .  S
C838        O844   1.265       .  A
C838        O846   1.257       .  A
C838        C965   1.490       .  S
O839        C847   1.264       .  A
O840        C847   1.260       .  A
C841        O848   1.257       .  A
C841        O842   1.263       .  A
C841       C1397   1.487       .  S
C843        O845   1.261       .  A
C843        O849   1.262       .  A
C843       C1382   1.475       .  S
C847        C941   1.483       .  S
In850       O852   2.258       .  S
In850       O861   2.238       .  S
In850       O855   2.293       .  S
In850       O857   2.284       .  S
C851        O859   1.258       .  A
C851        C974   1.490       .  S
O852        C860   1.264       .  A
C854        O861   1.259       .  A
C854        O855   1.266       .  A
C854       C1109   1.495       .  S
C856        O858   1.263       .  A
C856        O862   1.262       .  A
C856       C1085   1.477       .  S
C860        C917   1.484       .  S
In863       O865   2.249       .  S
In863       O866   2.226       .  S
In863       O874   2.231       .  S
In863       O868   2.275       .  S
In863       O870   2.279       .  S
In863       O871   2.221       .  S
In863       O872   2.222       .  S
In863       O875   2.238       .  S
C864        O870   1.265       .  A
C864        O872   1.256       .  A
C864        C902   1.484       .  S
O865        C873   1.264       .  A
O866        C873   1.261       .  A
C867        O874   1.258       .  A
C867        O868   1.265       .  A
C867       C1190   1.486       .  S
C869        O871   1.262       .  A
C869        O875   1.263       .  A
C869       C1214   1.476       .  S
C873        C926   1.477       .  S
In876       O878   2.251       .  S
In876       O879   2.237       .  S
In876       O887   2.234       .  S
In876       O881   2.279       .  S
In876       O883   2.270       .  S
In876       O884   2.242       .  S
In876       O885   2.234       .  S
In876       O888   2.226       .  S
C877        O883   1.265       .  A
C877        O885   1.258       .  A
C877        C893   1.486       .  S
O878        C886   1.262       .  A
O879        C886   1.260       .  A
C880        O887   1.258       .  A
C880        O881   1.265       .  A
C880       C1013   1.485       .  S
C882        O884   1.263       .  A
C882        O888   1.262       .  A
C882        C998   1.473       .  S
C886        C950   1.481       .  S
C889        C890   1.400       .  A
C889        C894   1.399       .  A
C889        H899   1.084       .  S
C890        C895   1.483   1_655  S
C890        C891   1.408       .  A
C891        C892   1.405       .  A
C891        O896   1.372       .  S
C892        C893   1.406       .  A
C892        H897   1.083       .  S
C893        C894   1.414       .  A
C894        O898   1.372       .  S
C895        C900   1.406       .  A
C895        C904   1.405       .  A
O896        H912   0.992       .  S
O898        H909   0.992       .  S
C900        C901   1.398       .  A
C900        O905   1.372       .  S
C901        C902   1.408       .  A
C901        H906   1.084       .  S
C902        C903   1.409       .  A
C903        C904   1.404       .  A
C903        O907   1.371       .  S
C904        H908   1.084   1_455  S
O905        H910   0.992       .  S
O907        H911   0.991       .  S
C913        C914   1.402       .  A
C913        C918   1.399       .  A
C914        C919   1.482       .  S
C914        C915   1.408       .  A
C915        C916   1.403       .  A
C915        O920   1.373       .  S
C916        C917   1.405       .  A
C916        H921   1.083       .  S
C917        C918   1.413       .  A
C919        C924   1.408       .  A
C919        C928   1.405       .  A
O920        H936   0.992       .  S
O922        H933   0.992   1_554  S
C924        C925   1.398       .  A
C924        O929   1.371       .  S
C925        C926   1.404       .  A
C925        H930   1.084       .  S
C926        C927   1.409       .  A
C927        C928   1.401       .  A
C927        O931   1.372       .  S
C928        H932   1.084       .  S
O929        H934   0.992       .  S
O931        H935   0.992       .  S
C937        C938   1.401       .  A
C937        C942   1.401       .  A
C937        H947   1.084       .  S
C938        C943   1.475       .  S
C938        C939   1.404       .  A
C939        C940   1.399       .  A
C939        O944   1.372       .  S
C940        C941   1.408       .  A
C940        H945   1.083       .  S
C941        C942   1.411       .  A
C942        O946   1.371       .  S
C943        C948   1.405       .  A
C943        C952   1.400       .  A
O944        H960   0.992       .  S
O946        H957   0.992       .  S
C948        C949   1.401       .  A
C948        O953   1.372       .  S
C949        C950   1.407       .  A
C949        H954   1.083       .  S
C950        C951   1.412       .  A
C951        C952   1.399       .  A
C951        O955   1.371       .  S
C952        H956   1.084       .  S
O953        H958   0.992       .  S
O955        H959   0.992       .  S
C961        C962   1.407       .  A
C961        C966   1.408       .  A
C961        H971   1.083   1_655  S
C962        C967   1.489   1_655  S
C962        C963   1.406       .  A
C963        C964   1.400       .  A
C963        O968   1.372       .  S
C964        C965   1.407       .  A
C964        H969   1.083       .  S
C965        C966   1.411       .  A
C966        O970   1.371       .  S
C967        C972   1.411       .  A
C967        C976   1.400       .  A
O968        H984   0.992       .  S
O970        H981   0.992       .  S
C972        C973   1.405       .  A
C972        O977   1.371   1_455  S
C973        C974   1.405       .  A
C973        H978   1.083       .  S
C974        C975   1.416       .  A
C975        C976   1.401       .  A
C975        O979   1.372       .  S
C976        H980   1.084       .  S
O977        H982   0.992       .  S
O979        H983   0.992       .  S
C985        C986   1.402       .  A
C985        C990   1.399       .  A
C985        H995   1.084       .  S
C986        C991   1.475       .  S
C986        C987   1.405       .  A
C987        C988   1.397       .  A
C987        O992   1.373       .  S
C988        C989   1.405       .  A
C988        H993   1.083       .  S
C989        C990   1.411       .  A
C990        O994   1.372       .  S
C991        C996   1.407       .  A
C991       C1000   1.401       .  A
O992       H1008   0.992       .  S
O994       H1005   0.992       .  S
C996        C997   1.399       .  A
C996       O1001   1.372       .  S
C997        C998   1.404       .  A
C997       H1002   1.084       .  S
C998        C999   1.410       .  A
C999       C1000   1.397       .  A
C999       O1003   1.372       .  S
C1000      H1004   1.084       .  S
O1001      H1006   0.992       .  S
O1003      H1007   0.992       .  S
C1009      C1010   1.405       .  A
C1009      C1014   1.402       .  A
C1009      H1019   1.083       .  S
C1010      C1015   1.496       .  S
C1010      C1011   1.414       .  A
C1011      C1012   1.406       .  A
C1011      O1016   1.371       .  S
C1012      C1013   1.404       .  A
C1012      H1017   1.083       .  S
C1013      C1014   1.411       .  A
C1014      O1018   1.372       .  S
C1015      C1020   1.412       .  A
C1015      C1024   1.404       .  A
O1016      H1032   0.992       .  S
O1018      H1029   0.992       .  S
C1020      C1021   1.409       .  A
C1020      O1025   1.372       .  S
C1021      C1022   1.406       .  A
C1021      H1026   1.083       .  S
C1022      C1023   1.414       .  A
C1023      C1024   1.402       .  A
C1023      O1027   1.372       .  S
C1024      H1028   1.084       .  S
O1025      H1030   0.992       .  S
O1027      H1031   0.992       .  S
C1033      C1034   1.405       .  A
C1033      C1038   1.406       .  A
C1033      H1043   1.083       .  S
C1034      C1039   1.485       .  S
C1034      C1035   1.405       .  A
C1035      C1036   1.400       .  A
C1035      O1040   1.372       .  S
C1036      C1037   1.407       .  A
C1036      H1041   1.083       .  S
C1037      C1038   1.412       .  A
C1038      O1042   1.371       .  S
C1039      C1044   1.409       .  A
C1039      C1048   1.400       .  A
O1040      H1056   0.992       .  S
O1042      H1053   0.992       .  S
C1044      C1045   1.404       .  A
C1044      O1049   1.371       .  S
C1045      C1046   1.405       .  A
C1045      H1050   1.083       .  S
C1046      C1047   1.417       .  A
C1047      C1048   1.402       .  A
C1047      O1051   1.372       .  S
C1048      H1052   1.084       .  S
O1049      H1054   0.992       .  S
O1051      H1055   0.992       .  S
C1057      C1058   1.401       .  A
C1057      C1062   1.396       .  A
C1057      H1067   1.084       .  S
C1058      C1063   1.481       .  S
C1058      C1059   1.409       .  A
C1059      C1060   1.402       .  A
C1059      O1064   1.372       .  S
C1060      C1061   1.406       .  A
C1060      H1065   1.083       .  S
C1061      C1062   1.412       .  A
C1062      O1066   1.372       .  S
C1063      C1068   1.407       .  A
C1063      C1072   1.404       .  A
O1064      H1080   0.992   1_556  S
O1066      H1077   0.992       .  S
C1068      C1069   1.398       .  A
C1068      O1073   1.372   1_556  S
C1069      C1070   1.405       .  A
C1070      C1071   1.411       .  A
C1071      C1072   1.401       .  A
C1071      O1075   1.371       .  S
C1072      H1076   1.084       .  S
O1075      H1079   0.992       .  S
C1081      C1082   1.403       .  A
C1081      C1086   1.401       .  A
C1081      H1091   1.084       .  S
C1082      C1087   1.480       .  S
C1082      C1083   1.407       .  A
C1083      C1084   1.399       .  A
C1083      O1088   1.373       .  S
C1084      C1085   1.404       .  A
C1084      H1089   1.084       .  S
C1085      C1086   1.411       .  A
C1086      O1090   1.372       .  S
C1087      C1092   1.407       .  A
C1087      C1096   1.402       .  A
O1088      H1104   0.992       .  S
O1090      H1101   0.992       .  S
C1092      C1093   1.399       .  A
C1092      O1097   1.372       .  S
C1093      C1094   1.404       .  A
C1093      H1098   1.083       .  S
C1094      C1095   1.414       .  A
C1095      C1096   1.402       .  A
C1095      O1099   1.371       .  S
C1096      H1100   1.084       .  S
O1097      H1102   0.992       .  S
O1099      H1103   0.992       .  S
C1105      C1106   1.401       .  A
C1105      C1110   1.399       .  A
C1105      H1115   1.084       .  S
C1106      C1111   1.493       .  S
C1106      C1107   1.411       .  A
C1107      C1108   1.413       .  A
C1107      O1112   1.372       .  S
C1108      C1109   1.410       .  A
C1108      H1113   1.083       .  S
C1109      C1110   1.413       .  A
C1110      O1114   1.371       .  S
C1111      C1116   1.411       .  A
C1111      C1120   1.403       .  A
O1112      H1128   0.992       .  S
O1114      H1125   0.992       .  S
C1116      C1117   1.409       .  A
C1116      O1121   1.371       .  S
C1117      C1118   1.408       .  A
C1117      H1122   1.083       .  S
C1118      C1119   1.414       .  A
C1119      C1120   1.401       .  A
C1119      O1123   1.372       .  S
C1120      H1124   1.084       .  S
O1121      H1126   0.992       .  S
O1123      H1127   0.992       .  S
C1129      C1130   1.402       .  A
C1129      C1134   1.403       .  A
C1129      H1139   1.084       .  S
C1130      C1135   1.489       .  S
C1130      C1131   1.410       .  A
C1131      C1132   1.406       .  A
C1131      O1136   1.373       .  S
C1132      C1133   1.406       .  A
C1132      H1137   1.083       .  S
C1133      C1134   1.412       .  A
C1134      O1138   1.371       .  S
C1135      C1140   1.408       .  A
C1135      C1144   1.405       .  A
O1136      H1152   0.992       .  S
O1138      H1149   0.992       .  S
C1140      C1141   1.400       .  A
C1140      O1145   1.372       .  S
C1141      C1142   1.406       .  A
C1141      H1146   1.083       .  S
C1142      C1143   1.414       .  A
C1143      C1144   1.407       .  A
C1143      O1147   1.371       .  S
C1144      H1148   1.084       .  S
O1145      H1150   0.992       .  S
O1147      H1151   0.992       .  S
C1153      C1154   1.400       .  A
C1153      C1158   1.401       .  A
C1153      H1163   1.084       .  S
C1154      C1159   1.485       .  S
C1154      C1155   1.409       .  A
C1155      C1156   1.406       .  A
C1155      O1160   1.372       .  S
C1156      C1157   1.405       .  A
C1156      H1161   1.083       .  S
C1157      C1158   1.415       .  A
C1158      O1162   1.372       .  S
C1159      C1164   1.405       .  A
C1159      C1168   1.406       .  A
O1160      H1176   0.992       .  S
O1162      H1173   0.992       .  S
C1164      C1165   1.399       .  A
C1164      O1169   1.372       .  S
C1165      C1166   1.408       .  A
C1165      H1170   1.083       .  S
C1166      C1167   1.412       .  A
C1167      C1168   1.408       .  A
C1167      O1171   1.371       .  S
C1168      H1172   1.083       .  S
O1169      H1174   0.992       .  S
O1171      H1175   0.992       .  S
C1177      C1178   1.406       .  A
C1177      C1182   1.402       .  A
C1177      H1187   1.083       .  S
C1178      C1183   1.491       .  S
C1178      C1179   1.409       .  A
C1179      C1180   1.403       .  A
C1179      O1184   1.372       .  S
C1180      C1181   1.405       .  A
C1180      H1185   1.083       .  S
C1181      C1182   1.411       .  A
C1182      O1186   1.372       .  S
C1183      C1192   1.406       .  A
O1184      H1200   0.992       .  S
O1186      H1197   0.992       .  S
C1188      C1189   1.401       .  A
C1188      O1193   1.373       .  S
C1189      C1190   1.405       .  A
C1189      H1194   1.084       .  S
C1191      C1192   1.404   1_554  A
C1191      O1195   1.371       .  S
C1192      H1196   1.083       .  S
O1193      H1198   0.992       .  S
O1195      H1199   0.992       .  S
C1201      C1202   1.403       .  A
C1201      C1206   1.397       .  A
C1201      H1211   1.084       .  S
C1202      C1207   1.479       .  S
C1202      C1203   1.408       .  A
C1203      C1204   1.399       .  A
C1203      O1208   1.373       .  S
C1204      C1205   1.405       .  A
C1204      H1209   1.084       .  S
C1205      C1206   1.410       .  A
C1206      O1210   1.371       .  S
C1207      C1212   1.409       .  A
C1207      C1216   1.401       .  A
O1208      H1224   0.992       .  S
O1210      H1221   0.992       .  S
C1212      C1213   1.399       .  A
C1212      O1217   1.371       .  S
C1213      C1214   1.405       .  A
C1213      H1218   1.083       .  S
C1214      C1215   1.411       .  A
C1215      C1216   1.396       .  A
C1215      O1219   1.371       .  S
C1216      H1220   1.084       .  S
O1217      H1222   0.992       .  S
O1219      H1223   0.992       .  S
C1225      C1226   1.401       .  A
C1225      C1230   1.398       .  A
C1225      H1235   1.084       .  S
C1226      C1231   1.473       .  S
C1226      C1227   1.405       .  A
C1227      C1228   1.398       .  A
C1227      O1232   1.372       .  S
C1228      C1229   1.405       .  A
C1228      H1233   1.084       .  S
C1229      C1230   1.410       .  A
C1230      O1234   1.371       .  S
C1231      C1236   1.407       .  A
C1231      C1240   1.400       .  A
O1232      H1248   0.992       .  S
O1234      H1245   0.992       .  S
C1236      C1237   1.397       .  A
C1236      O1241   1.372       .  S
C1237      C1238   1.404       .  A
C1237      H1242   1.083       .  S
C1238      C1239   1.413       .  A
C1239      C1240   1.398       .  A
C1239      O1243   1.372       .  S
C1240      H1244   1.084       .  S
O1241      H1246   0.992       .  S
O1243      H1247   0.992       .  S
C1249      C1250   1.399       .  A
C1249      H1259   1.084       .  S
C1250      C1255   1.485       .  S
C1250      C1251   1.410       .  A
C1251      C1252   1.409       .  A
C1251      O1256   1.371       .  S
C1252      H1257   1.083       .  S
C1253      C1254   1.413       .  A
C1254      O1258   1.372       .  S
C1255      C1260   1.407       .  A
C1255      C1264   1.402       .  A
O1256      H1272   0.991       .  S
O1258      H1269   0.992       .  S
C1260      C1261   1.407       .  A
C1260      O1265   1.371       .  S
C1261      C1262   1.409       .  A
C1261      H1266   1.083       .  S
C1262      C1263   1.412       .  A
C1263      C1264   1.399       .  A
C1263      O1267   1.372       .  S
C1264      H1268   1.084       .  S
O1265      H1270   0.992       .  S
O1267      H1271   0.992       .  S
C1273      C1274   1.406       .  A
C1273      C1278   1.404       .  A
C1273      H1283   1.083   1_545  S
C1274      C1279   1.487   1_545  S
C1274      C1275   1.407       .  A
C1275      C1276   1.401       .  A
C1275      O1280   1.371       .  S
C1276      C1277   1.406       .  A
C1276      H1281   1.084       .  S
C1277      C1278   1.411       .  A
C1278      O1282   1.372       .  S
C1279      C1284   1.406       .  A
C1279      C1288   1.405       .  A
O1280      H1296   0.992       .  S
O1282      H1293   0.992       .  S
C1284      C1285   1.402       .  A
C1284      O1289   1.372       .  S
C1285      C1286   1.408       .  A
C1285      H1290   1.083       .  S
C1286      C1287   1.410       .  A
C1287      C1288   1.403       .  A
C1287      O1291   1.371       .  S
C1288      H1292   1.084   1_565  S
O1289      H1294   0.992       .  S
O1291      H1295   0.992       .  S
C1297      C1298   1.407       .  A
C1297      C1302   1.409       .  A
C1297      H1307   1.083       .  S
C1298      C1303   1.488       .  S
C1298      C1299   1.405       .  A
C1299      C1300   1.401       .  A
C1299      O1304   1.372       .  S
C1300      C1301   1.406       .  A
C1300      H1305   1.084       .  S
C1301      C1302   1.411       .  A
C1302      O1306   1.371       .  S
C1303      C1308   1.405       .  A
C1303      C1312   1.405       .  A
O1304      H1320   0.992       .  S
O1306      H1317   0.992       .  S
C1308      C1309   1.401       .  A
C1308      O1313   1.372       .  S
C1309      C1310   1.408       .  A
C1309      H1314   1.083       .  S
C1310      C1311   1.414       .  A
C1311      C1312   1.409       .  A
C1311      O1315   1.371       .  S
C1312      H1316   1.083       .  S
O1313      H1318   0.992       .  S
O1315      H1319   0.992       .  S
C1321      C1322   1.402       .  A
C1321      H1331   1.084       .  S
C1322      C1327   1.476       .  S
C1322      C1323   1.406       .  A
C1323      C1324   1.398       .  A
C1323      O1328   1.372       .  S
C1324      H1329   1.083       .  S
C1325      C1326   1.412       .  A
C1326      O1330   1.372       .  S
C1327      C1332   1.406       .  A
C1327      C1336   1.401       .  A
O1328      H1344   0.992       .  S
O1330      H1341   0.992       .  S
C1332      C1333   1.396       .  A
C1332      O1337   1.371       .  S
C1333      C1334   1.403       .  A
C1333      H1338   1.083       .  S
C1334      C1335   1.412       .  A
C1335      C1336   1.400       .  A
C1335      O1339   1.372       .  S
C1336      H1340   1.084       .  S
O1337      H1342   0.992       .  S
O1339      H1343   0.992       .  S
C1345      C1346   1.404       .  A
C1345      C1350   1.402       .  A
C1345      H1355   1.084       .  S
C1346      C1351   1.484       .  S
C1346      C1347   1.408       .  A
C1347      C1348   1.400       .  A
C1347      O1352   1.371       .  S
C1348      C1349   1.406       .  A
C1348      H1353   1.083       .  S
C1349      C1350   1.412       .  A
C1350      O1354   1.372       .  S
C1351      C1356   1.408       .  A
C1351      C1360   1.403       .  A
O1352      H1368   0.992       .  S
O1354      H1365   0.992       .  S
C1356      C1357   1.402       .  A
C1356      O1361   1.372       .  S
C1357      C1358   1.407       .  A
C1357      H1362   1.083       .  S
C1358      C1359   1.412       .  A
C1359      C1360   1.400       .  A
C1359      O1363   1.371       .  S
C1360      H1364   1.084       .  S
O1361      H1366   0.992       .  S
O1363      H1367   0.992       .  S
C1369      C1370   1.402   1_554  A
C1370      C1375   1.475       .  S
C1370      C1371   1.406       .  A
C1371      C1372   1.399   1_556  A
C1371      O1376   1.372       .  S
C1372      H1377   1.084       .  S
C1373      C1374   1.409       .  A
C1374      O1378   1.372       .  S
C1375      C1380   1.406       .  A
C1375      C1384   1.401       .  A
O1376      H1392   0.992       .  S
O1378      H1389   0.992       .  S
C1380      C1381   1.397       .  A
C1380      O1385   1.372       .  S
C1381      C1382   1.406       .  A
C1381      H1386   1.083       .  S
C1382      C1383   1.411       .  A
C1383      C1384   1.397       .  A
C1383      O1387   1.371       .  S
C1384      H1388   1.084       .  S
O1385      H1390   0.991       .  S
O1387      H1391   0.992       .  S
C1393      C1394   1.407       .  A
C1393      C1398   1.400       .  A
C1393      H1403   1.083       .  S
C1394      C1399   1.499       .  S
C1394      C1395   1.413       .  A
C1395      C1396   1.409       .  A
C1395      O1400   1.371       .  S
C1396      C1397   1.406       .  A
C1396      H1401   1.083       .  S
C1397      C1398   1.410       .  A
C1398      O1402   1.372       .  S
C1399      C1404   1.411       .  A
C1399      C1408   1.410       .  A
O1400      H1416   0.992       .  S
O1402      H1413   0.992       .  S
C1404      C1405   1.398       .  A
C1404      O1409   1.372       .  S
C1405      C1406   1.404       .  A
C1405      H1410   1.084       .  S
C1406      C1407   1.412       .  A
C1407      C1408   1.411       .  A
C1407      O1411   1.371       .  S
C1408      H1412   1.083       .  S
O1409      H1414   0.992       .  S
O1411      H1415   0.992       .  S
C1417      C1418   1.405       .  A
C1417      C1422   1.403       .  A
C1417      H1427   1.083       .  S
C1418      C1423   1.486       .  S
C1418      C1419   1.408       .  A
C1419      C1420   1.399       .  A
C1419      O1424   1.372       .  S
C1420      C1421   1.407       .  A
C1420      H1425   1.083       .  S
C1421      C1422   1.411       .  A
C1422      O1426   1.371       .  S
C1423      C1428   1.408       .  A
C1423      C1432   1.405       .  A
O1424      H1440   0.992       .  S
O1426      H1437   0.992       .  S
C1428      C1429   1.400       .  A
C1428      O1433   1.372       .  S
C1429      C1430   1.405       .  A
C1429      H1434   1.083       .  S
C1430      C1431   1.412       .  A
C1431      C1432   1.402       .  A
C1431      O1435   1.372       .  S
C1432      H1436   1.084       .  S
O1433      H1438   0.992       .  S
O1435      H1439   0.992       .  S
C1441      H1451   1.084   1_565  S
C1442      C1443   1.407   1_556  A
C1443      C1444   1.403   1_554  A
C1443      O1448   1.372       .  S
C1444      C1445   1.408       .  A
C1444      H1449   1.083       .  S
C1445      C1446   1.411       .  A
C1447      C1452   1.410       .  A
C1447      C1456   1.399       .  A
O1448      H1464   0.992       .  S
C1452      C1453   1.408       .  A
C1452      O1457   1.372   1_545  S
C1453      C1454   1.406       .  A
C1453      H1458   1.083       .  S
C1454      C1455   1.416       .  A
C1455      C1456   1.399       .  A
C1455      O1459   1.372       .  S
O1457      H1462   0.991       .  S
O1459      H1463   0.992       .  S
