geometry optimzed in LAMMPS
_audit_creation_date              2020-12-01 
_audit_creation_method            'lammps2cif' 
_symmetry_space_group_name_H-M    'P1' 
_symmetry_Int_Tables_number       1 
_symmetry_cell_setting            triclinic 
loop_ 
_symmetry_equiv_pos_as_xyz 
  x,y,z 
_cell_length_a                    29.32352856 
_cell_length_b                    29.19070343375396 
_cell_length_c                    40.07436434793726 
_cell_angle_alpha                 89.85112661683704 
_cell_angle_beta                  89.87959987459293 
_cell_angle_gamma                 90.37202747202701 
loop_ 
_atom_site_label 
_atom_site_type_symbol 
_atom_site_fract_x 
_atom_site_fract_y 
_atom_site_fract_z 
_atom_site_charge 
O1          O  0.87361264  0.95557194  0.63245814    -0.70900
O2          O  0.81477770  0.83797765  0.62951181    -0.71100
O3          O  0.81417064  0.90834977  0.67293344    -0.70900
O4          O  0.87152508  0.88591033  0.58976999    -0.71000
O5          O  0.92938381  0.85566456  0.61523373    -0.70900
O6          O  0.87080822  0.87632086  0.69867893    -0.70900
O7          O  0.87289173  0.80880254  0.65444339    -0.70900
O8          O  0.92952213  0.92406326  0.65936271    -0.71100
V9          V  0.84442665  0.89657947  0.63186264     1.35200
V10         V  0.89948839  0.86716757  0.65657510     1.35200
C11         C  0.91351979  0.95842983  0.64443932     0.78400
C12         C  0.83483902  0.80271947  0.64074105     0.78400
C13         C  0.83148568  0.89392273  0.69978127     0.78300
C14         C  0.90993562  0.86687109  0.58828331     0.78300
O15         O  0.04789782  0.14217376  0.62814924    -0.70900
O16         O  0.15797565  0.21285578  0.62451800    -0.71100
O17         O  0.11670217  0.15194855  0.58471432    -0.70900
O18         O  0.08885947  0.20452801  0.66859615    -0.71000
O19         O  0.12279799  0.14812235  0.69363957    -0.70900
O20         O  0.15559142  0.09860311  0.60937684    -0.70900
O21         O  0.19280885  0.15867962  0.65149542    -0.70900
O22         O  0.08586809  0.08720857  0.65163416    -0.71100
V23         V  0.10340480  0.17695126  0.62711243     1.35200
V24         V  0.13839131  0.12425594  0.65111319     1.35200
C25         C  0.04925054  0.10140827  0.63897708     0.78400
C26         C  0.19416132  0.19718099  0.63728200     0.78400
C27         C  0.14148615  0.11686448  0.58268575     0.78300
C28         C  0.10152673  0.18557739  0.69537068     0.78300
O29         O  0.03714678  0.29297170  0.89575044    -0.70900
O30         O  0.15016890  0.22889091  0.90015257    -0.71100
O31         O  0.10193527  0.28183888  0.94207724    -0.70900
O32         O  0.08508010  0.23962765  0.85342505    -0.71000
O33         O  0.11729056  0.30122311  0.83469039    -0.70900
O34         O  0.14100669  0.33958397  0.92331876    -0.70900
O35         O  0.18458327  0.28823593  0.87865466    -0.70900
O36         O  0.07410912  0.35363777  0.87909239    -0.71100
V37         V  0.09420348  0.26185800  0.89747148     1.35200
V38         V  0.12845380  0.31950388  0.87930760     1.35200
C39         C  0.03686563  0.33468571  0.88705378     0.78400
C40         C  0.18650455  0.24797419  0.88990491     0.78400
C41         C  0.12514452  0.31751889  0.94799612     0.78300
C42         C  0.09797018  0.26330582  0.82861386     0.78300
O43         O  0.86120073  0.47557143  0.89981894    -0.70900
O44         O  0.79724070  0.58881218  0.90344314    -0.71100
O45         O  0.80989561  0.52418536  0.85684134    -0.70900
O46         O  0.84758595  0.54001081  0.94641829    -0.71000
O47         O  0.90916166  0.57442959  0.92949825    -0.70900
O48         O  0.86898246  0.56292952  0.83957544    -0.70900
O49         O  0.85899354  0.62472892  0.88813202    -0.70900
O50         O  0.92065284  0.51213450  0.88083613    -0.71100
V51         V  0.83015449  0.53276508  0.90128342     1.35200
V52         V  0.88837474  0.56763732  0.88482940     1.35200
C53         C  0.90194351  0.47483247  0.88937949     0.78400
C54         C  0.81765745  0.62609885  0.89670773     0.78400
C55         C  0.83210041  0.54204270  0.83306361     0.78300
C56         C  0.88434070  0.56054703  0.95342686     0.78300
O57         O  0.53147501  0.29175403  0.63169362    -0.70900
O58         O  0.40925429  0.24684050  0.62387306    -0.71100
O59         O  0.46790235  0.29160474  0.58385517    -0.70900
O60         O  0.47292154  0.24563112  0.67165457    -0.71000
O61         O  0.44621129  0.30930486  0.69100560    -0.70900
O62         O  0.44165978  0.35606306  0.60165479    -0.70900
O63         O  0.38420294  0.31183056  0.64264369    -0.70900
O64         O  0.50472528  0.35573370  0.65097669    -0.71100
V65         V  0.46999091  0.27025279  0.62815987     1.35200
V66         V  0.44503161  0.33216963  0.64618237     1.35200
C67         C  0.53851996  0.33178239  0.64268034     0.78400
C68         C  0.37611612  0.27185463  0.63250417     0.78400
C69         C  0.45243707  0.33071795  0.57719087     0.78300
C70         C  0.45849689  0.26830472  0.69622511     0.78300
O71         O  0.72045218  0.46592031  0.63634358    -0.70900
O72         O  0.77840734  0.58273693  0.63019798    -0.71100
O73         O  0.77125738  0.51835585  0.67783199    -0.70900
O74         O  0.72885171  0.53053221  0.58904117    -0.71000
O75         O  0.66712573  0.56263827  0.60662882    -0.70900
O76         O  0.71053587  0.55255470  0.69610239    -0.70900
O77         O  0.71616009  0.61493684  0.64751791    -0.70900
O78         O  0.65963233  0.49898109  0.65557665    -0.71100
V79         V  0.74851708  0.52486961  0.63378108     1.35200
V80         V  0.68940804  0.55631090  0.65116862     1.35200
C81         C  0.67978782  0.46291659  0.64671280     0.78400
C82         C  0.75676243  0.61875226  0.63752462     0.78400
C83         C  0.74913873  0.53505451  0.70192597     0.78300
C84         C  0.69179143  0.55024508  0.58227254     0.78300
O85         O  0.70101019  0.96018273  0.89090881    -0.70900
O86         O  0.75804931  0.84263860  0.89460752    -0.71100
O87         O  0.75158788  0.90974842  0.84870148    -0.70900
O88         O  0.70931916  0.89303781  0.93710182    -0.71000
O89         O  0.64460577  0.86806211  0.91866694    -0.70900
O90         O  0.69348601  0.87090920  0.83017736    -0.70900
O91         O  0.69369906  0.81125239  0.88131012    -0.70900
O92         O  0.64253210  0.92775814  0.86744240    -0.71100
V93         V  0.72887080  0.90098079  0.89249346     1.35200
V94         V  0.66964137  0.87025959  0.87465724     1.35200
C95         C  0.66201983  0.96378441  0.87753857     0.78400
C96         C  0.73476780  0.80645540  0.88970641     0.78400
C97         C  0.73103124  0.89132351  0.82455678     0.78300
C98         C  0.66989563  0.87764401  0.94335661     0.78300
O99         O  0.52049801  0.13859461  0.89017617    -0.70900
O100        O  0.40164072  0.19054040  0.89871295    -0.71100
O101        O  0.45425446  0.13662921  0.93705867    -0.70900
O102        O  0.46744910  0.19325821  0.85216704    -0.71000
O103        O  0.43736857  0.13382637  0.82879932    -0.70900
O104        O  0.42405645  0.07656062  0.91368781    -0.70900
O105        O  0.37264967  0.13011394  0.87522486    -0.70900
O106        O  0.48987266  0.07911211  0.86656524    -0.71100
V107        V  0.46054764  0.16356770  0.89412491     1.35200
V108        V  0.43188126  0.10596846  0.87155378     1.35200
C109        C  0.52522394  0.09976527  0.87660686     0.78400
C110        C  0.36697858  0.16918304  0.88781796     0.78400
C111        C  0.43544092  0.09776456  0.93989750     0.78300
C112        C  0.45308973  0.17414353  0.82590433     0.78300
O113        O  0.37426459  0.46795266  0.39488012    -0.70900
O114        O  0.31080408  0.35253971  0.39400188    -0.71100
O115        O  0.36467695  0.39777853  0.43739866    -0.70900
O116        O  0.31831246  0.42381436  0.35133380    -0.71000
O117        O  0.37434942  0.38733157  0.32881057    -0.70900
O118        O  0.42549091  0.36865835  0.41505618    -0.70900
O119        O  0.37201385  0.32120210  0.37481170    -0.70900
O120        O  0.43066216  0.43520159  0.36920981    -0.71100
V121        V  0.34295260  0.41008064  0.39385403     1.35200
V122        V  0.39945785  0.37900964  0.37225951     1.35200
C123        C  0.41446645  0.47004657  0.38323368     0.78400
C124        C  0.33171749  0.31659246  0.38501229     0.78400
C125        C  0.40300701  0.37906919  0.44094631     0.78300
C126        C  0.33683867  0.40816329  0.32531310     0.78300
O127        O  0.55961140  0.64479712  0.39917868    -0.70900
O128        O  0.67596039  0.70379510  0.40540483    -0.71100
O129        O  0.60830388  0.70341532  0.36020543    -0.70900
O130        O  0.62703602  0.64687245  0.44430140    -0.71000
O131        O  0.66150728  0.59024844  0.42014638    -0.70900
O132        O  0.63731687  0.64437333  0.33524206    -0.70900
O133        O  0.70620323  0.64670233  0.37874619    -0.70900
O134        O  0.59287517  0.58639812  0.37624008    -0.71100
V135        V  0.61823560  0.67369835  0.40169451     1.35200
V136        V  0.64871169  0.61806560  0.37802262     1.35200
C137        C  0.55734675  0.60433371  0.38796204     0.78400
C138        C  0.71075311  0.68489557  0.39285697     0.78400
C139        C  0.61981298  0.68387505  0.33342300     0.78300
C140        C  0.64822297  0.60951377  0.44674444     0.78300
O141        O  0.02672021  0.64529512  0.13270440    -0.70900
O142        O  0.91319512  0.70917444  0.12984186    -0.71100
O143        O  0.98275029  0.70513401  0.17333305    -0.70900
O144        O  0.95717711  0.65091083  0.08965817    -0.71000
O145        O  0.92032592  0.59561589  0.11445164    -0.70900
O146        O  0.95231307  0.64644680  0.19852739    -0.72500
O147        O  0.88128202  0.65326994  0.15740516    -0.70900
O148        O  0.99163758  0.58740131  0.15560130    -0.71100
V149        V  0.96947452  0.67660971  0.13198987     1.35200
V150        V  0.93725104  0.62178094  0.15610200     1.35200
C151        C  0.02753837  0.60421388  0.14298987     0.78400
C152        C  0.87795754  0.69172689  0.14326490     0.78400
C153        C  0.97113986  0.68551250  0.20018672     0.78300
C154        C  0.93355166  0.61473794  0.08772757     0.78300
O155        O  0.20780442  0.46457822  0.12633752    -0.70900
O156        O  0.26805406  0.34778408  0.12737299    -0.71100
O157        O  0.21425180  0.39298885  0.08459368    -0.70900
O158        O  0.26403072  0.41987290  0.16930768    -0.71000
O159        O  0.20658967  0.38625515  0.19343271    -0.70900
O160        O  0.15385567  0.36392335  0.10818834    -0.70900
O161        O  0.20738402  0.31778958  0.14915743    -0.70900
O162        O  0.15054618  0.43267649  0.15213055    -0.71100
V163        V  0.23752932  0.40593728  0.12748289     1.35200
V164        V  0.18080061  0.37607455  0.15040203     1.35200
C165        C  0.16771655  0.46747002  0.13816092     0.78400
C166        C  0.24686225  0.31222813  0.13756946     0.78400
C167        C  0.17600899  0.37338654  0.08188623     0.78300
C168        C  0.24513933  0.40586064  0.19579864     0.78300
O169        O  0.35758949  0.97421018  0.13079940    -0.70900
O170        O  0.29757376  0.09012243  0.12541121    -0.71100
O171        O  0.34677476  0.03837542  0.08347292    -0.70900
O172        O  0.30694319  0.02540293  0.17275856    -0.71000
O173        O  0.36668429  0.06298558  0.18983353    -0.70900
O174        O  0.40987787  0.06990691  0.10015129    -0.70900
O175        O  0.36078871  0.12374036  0.13991260    -0.70900
O176        O  0.41753504  0.00898786  0.15038220    -0.71100
V177        V  0.32838251  0.03259543  0.12845055     1.35200
V178        V  0.38758280  0.06553939  0.14478253     1.35200
C179        C  0.39804189  0.97224872  0.14176865     0.78400
C180        C  0.31960356  0.12676229  0.13135235     0.78400
C181        C  0.38466265  0.05669862  0.07636317     0.78300
C182        C  0.32907558  0.04331342  0.19637863     0.78300
O183        O  0.54271787  0.79726754  0.13304110    -0.70900
O184        O  0.66123567  0.74271213  0.13271001    -0.71100
O185        O  0.59307788  0.74871620  0.17738255    -0.70900
O186        O  0.61143401  0.78964039  0.08860272    -0.71000
O187        O  0.63779385  0.85422560  0.10681636    -0.70900
O188        O  0.62477173  0.81031629  0.19619926    -0.70900
O189        O  0.69022069  0.80726611  0.14969160    -0.70900
O190        O  0.57273194  0.85901798  0.15394931    -0.71100
V191        V  0.60249868  0.77079195  0.13333892     1.35200
V192        V  0.63068869  0.83153749  0.15127725     1.35200
C193        C  0.53786395  0.83776274  0.14382236     0.78400
C194        C  0.69584506  0.76625741  0.14097733     0.78400
C195        C  0.60725514  0.77131180  0.20218192     0.78300
C196        C  0.62795262  0.82872488  0.08223347     0.78300
O197        O  0.04542955  0.79464944  0.39750149    -0.70900
O198        O  0.92811021  0.73772023  0.40473293    -0.71100
O199        O  0.99185280  0.74510582  0.35687639    -0.70900
O200        O  0.98251766  0.78608079  0.44555605    -0.71000
O201        O  0.94846632  0.84766846  0.42910055    -0.70900
O202        O  0.96158358  0.80751533  0.33873006    -0.70900
O203        O  0.89726225  0.80016420  0.38588983    -0.70900
O204        O  0.01227449  0.85714491  0.38109086    -0.71100
V205        V  0.98637141  0.76709156  0.40082509     1.35200
V206        V  0.95563146  0.82704015  0.38408475     1.35200
C207        C  0.04831738  0.83592852  0.38795048     0.78400
C208        C  0.89287709  0.75953761  0.39594100     0.78400
C209        C  0.97850654  0.76856782  0.33237860     0.78300
C210        C  0.96293767  0.82297062  0.45292405     0.78300
O211        O  0.22303442  0.97891087  0.39555832    -0.70900
O212        O  0.27952571  0.09660416  0.39884610    -0.71100
O213        O  0.23114632  0.04493139  0.44170849    -0.70900
O214        O  0.27199566  0.03044935  0.35256943    -0.71000
O215        O  0.21057720  0.06364230  0.33455395    -0.70900
O216        O  0.16852915  0.07525184  0.42397344    -0.70900
O217        O  0.21628948  0.12754938  0.38213731    -0.70900
O218        O  0.16158553  0.01072448  0.37635327    -0.71100
V219        V  0.25024459  0.03826418  0.39681523     1.35200
V220        V  0.19038723  0.06844391  0.37957649     1.35200
C221        C  0.18254827  0.97506615  0.38512189     0.78400
C222        C  0.25707891  0.13208465  0.39140050     0.78400
C223        C  0.19339478  0.06351138  0.44828238     0.78300
C224        C  0.24879172  0.04557159  0.32846949     0.78300
C225        C  0.09214087  0.86058401  0.38487182    -0.04400
C226        C  0.10206255  0.88365754  0.35469756    -0.01500
C227        C  0.13512329  0.91868161  0.35404650     0.03400
C228        C  0.15869684  0.93044920  0.38350121    -0.04400
C229        C  0.15270253  0.90368926  0.41263606    -0.01500
C230        C  0.11899114  0.86895342  0.41341407     0.03400
C231        C  0.07634359  0.87310253  0.32471509     0.38100
C232        C  0.17802224  0.91465413  0.44265865     0.38100
C233        C  0.10865504  0.84534936  0.44445105     0.36500
C234        C  0.14325643  0.94420945  0.32342146     0.36500
N235        N  0.10005743  0.82669845  0.46921827    -0.38300
N236        N  0.14956008  0.96470695  0.29906595    -0.38300
N237        N  0.19823416  0.92339745  0.46661185    -0.37800
N238        N  0.05579179  0.86485432  0.30082519    -0.37800
C239        C  0.26741382  0.04436218  0.29411326    -0.04400
C240        C  0.27705996  0.00222342  0.27845499    -0.01500
C241        C  0.29679950  0.00169670  0.24626436     0.03400
C242        C  0.30974657  0.04324281  0.23057918    -0.04400
C243        C  0.30082576  0.08529201  0.24659805    -0.01500
C244        C  0.27812856  0.08585361  0.27761724     0.03400
C245        C  0.26573421  0.95945718  0.29513200     0.38100
C246        C  0.31411557  0.12822051  0.23089711     0.38100
C247        C  0.26580346  0.12931880  0.29251206     0.36500
C248        C  0.30427800  0.95840619  0.22946489     0.36500
N249        N  0.25556258  0.16407757  0.30404796    -0.38300
N250        N  0.30999088  0.92392034  0.21594171    -0.38300
N251        N  0.32494611  0.16252867  0.21860154    -0.37800
N252        N  0.25678783  0.92528789  0.30840056    -0.37800
C253        C  0.49317074  0.86156740  0.14464799    -0.04400
C254        C  0.47906187  0.88262273  0.17462154    -0.01500
C255        C  0.44498662  0.91648090  0.17414180     0.03400
C256        C  0.42385586  0.92876194  0.14380643    -0.04400
C257        C  0.43435357  0.90423017  0.11448054    -0.01500
C258        C  0.46925188  0.87096162  0.11483193     0.03400
C259        C  0.50096035  0.87057298  0.20586592     0.38100
C260        C  0.41234157  0.91626652  0.08328998     0.38100
C261        C  0.48317328  0.84981619  0.08384431     0.36500
C262        C  0.43312310  0.94029161  0.20467296     0.36500
N263        N  0.49378096  0.83357334  0.05874033    -0.38300
N264        N  0.42382794  0.95952300  0.22894765    -0.38300
N265        N  0.39483623  0.92598526  0.05842265    -0.37800
N266        N  0.51845660  0.86079568  0.23072342    -0.37800
C267        C  0.26598706  0.26445489  0.13551115    -0.04400
C268        C  0.30327723  0.25406643  0.11420962    -0.01500
C269        C  0.31969248  0.20868461  0.11194162     0.03400
C270        C  0.29822476  0.17272454  0.12981333    -0.04400
C271        C  0.25985600  0.18221277  0.14966055    -0.01500
C272        C  0.24484583  0.22772970  0.15357495     0.03400
C273        C  0.32482889  0.28949007  0.09408358     0.38100
C274        C  0.23674428  0.14519488  0.16731943     0.38100
C275        C  0.20869530  0.23610122  0.17759721     0.36500
C276        C  0.35832631  0.19864890  0.09048861     0.36500
N277        N  0.18000150  0.24248912  0.19688137    -0.38300
N278        N  0.38909842  0.19048561  0.07342381    -0.38300
N279        N  0.21819070  0.11574660  0.18131498    -0.37800
N280        N  0.34219060  0.31750698  0.07788526    -0.37800
C281        C  0.83306699  0.71464515  0.14242959    -0.04400
C282        C  0.81175191  0.72447876  0.11165774    -0.01500
C283        C  0.76626422  0.74015649  0.11106273     0.03400
C284        C  0.74227510  0.74678022  0.14122001    -0.04400
C285        C  0.76415257  0.73844343  0.17196179    -0.01500
C286        C  0.80928237  0.72220981  0.17257512     0.03400
C287        C  0.83617199  0.71736912  0.08060181     0.38100
C288        C  0.74006348  0.74596585  0.20309894     0.38100
C289        C  0.83162078  0.71414452  0.20434900     0.36500
C290        C  0.74429695  0.75006515  0.07947562     0.36500
N291        N  0.84941728  0.70785538  0.22968660    -0.38300
N292        N  0.72675531  0.75798864  0.05428661    -0.38300
N293        N  0.72131751  0.75177524  0.22814309    -0.37800
N294        N  0.85572910  0.71176900  0.05584362    -0.37800
C295        C  0.97773643  0.70847095  0.23289851    -0.04400
C296        C  0.96396179  0.75433042  0.23747165    -0.01500
C297        C  0.96585682  0.77475618  0.26940431     0.03400
C298        C  0.98142447  0.74936658  0.29747035    -0.04400
C299        C  0.99796836  0.70403261  0.29197286    -0.01500
C300        C  0.99570564  0.68391774  0.26003908     0.03400
C301        C  0.94560099  0.78007187  0.20953879     0.38100
C302        C  0.01743842  0.67695288  0.31879099     0.38100
C303        C  0.01265269  0.63775187  0.25497356     0.36500
C304        C  0.95097927  0.82183583  0.27284203     0.36500
N305        N  0.02614659  0.60100664  0.25092282    -0.38300
N306        N  0.93903759  0.85940197  0.27526496    -0.38300
N307        N  0.03304907  0.65504353  0.33995021    -0.37800
N308        N  0.93095632  0.80055582  0.18728095    -0.37800
C309        C  0.06745006  0.57388309  0.13759950    -0.04400
C310        C  0.11086925  0.58341878  0.15136899    -0.01500
C311        C  0.14591389  0.55005576  0.14975091     0.03400
C312        C  0.13791574  0.50796426  0.13336385    -0.04400
C313        C  0.09613419  0.50096763  0.11660966    -0.01500
C314        C  0.06069816  0.53280405  0.11966262     0.03400
C315        C  0.11841237  0.62603174  0.16902066     0.38100
C316        C  0.08876181  0.46018551  0.09659708     0.38100
C317        C  0.01653907  0.52195174  0.10517876     0.36500
C318        C  0.18908336  0.55793752  0.16632686     0.36500
N319        N  0.98153664  0.51222590  0.09384928    -0.38300
N320        N  0.22359549  0.56422230  0.17955809    -0.38300
N321        N  0.08162859  0.42829734  0.08029352    -0.37800
N322        N  0.12431913  0.66013483  0.18307979    -0.37800
C323        C  0.75636324  0.70618637  0.39406482    -0.04400
C324        C  0.77740006  0.71547820  0.42496534    -0.01500
C325        C  0.82277695  0.73172901  0.42579375     0.03400
C326        C  0.84714138  0.73843579  0.39576201    -0.04400
C327        C  0.82574522  0.72981328  0.36487102    -0.01500
C328        C  0.78066645  0.71323575  0.36402760     0.03400
C329        C  0.75290672  0.70696307  0.45589743     0.38100
C330        C  0.84989955  0.73843581  0.33379879     0.38100
C331        C  0.75906013  0.70396098  0.33212651     0.36500
C332        C  0.84354962  0.74324590  0.45746778     0.36500
N333        N  0.74190481  0.69641458  0.30672536    -0.38300
N334        N  0.85922607  0.75265225  0.48302255    -0.38300
N335        N  0.86860940  0.74545033  0.30883946    -0.37800
N336        N  0.73346198  0.70005721  0.48058574    -0.37800
C337        C  0.60559258  0.75111625  0.23703585    -0.04400
C338        C  0.62558080  0.77450571  0.26459391    -0.01500
C339        C  0.62968047  0.75263970  0.29599258     0.03400
C340        C  0.61362350  0.70736805  0.30070432    -0.04400
C341        C  0.59145740  0.68483140  0.27423318    -0.01500
C342        C  0.58684344  0.70651558  0.24282409     0.03400
C343        C  0.64290111  0.82097917  0.26115225     0.38100
C344        C  0.57225053  0.63939535  0.27961282     0.38100
C345        C  0.56201465  0.68228698  0.21693907     0.36500
C346        C  0.65239364  0.77628868  0.32321709     0.36500
N347        N  0.54200243  0.66270971  0.19652923    -0.38300
N348        N  0.67052988  0.79510024  0.34489584    -0.38300
N349        N  0.55692949  0.60323415  0.28400230    -0.37800
N350        N  0.65690492  0.85800211  0.25867713    -0.37800
C351        C  0.31137253  0.26940254  0.38665570    -0.04400
C352        C  0.27386811  0.25915147  0.40787638    -0.01500
C353        C  0.25650635  0.21397528  0.40982769     0.03400
C354        C  0.27789512  0.17822402  0.39218410    -0.04400
C355        C  0.31656143  0.18757346  0.37251682    -0.01500
C356        C  0.33188083  0.23298775  0.36837049     0.03400
C357        C  0.25353419  0.29434579  0.42849478     0.38100
C358        C  0.33986119  0.15050109  0.35549710     0.38100
C359        C  0.36773678  0.24157514  0.34400379     0.36500
C360        C  0.21729233  0.20387879  0.43086478     0.36500
N361        N  0.39620039  0.24810754  0.32447336    -0.38300
N362        N  0.18603275  0.19567770  0.44757565    -0.38300
N363        N  0.35857287  0.12101068  0.34205082    -0.37800
N364        N  0.23726343  0.32217323  0.44515582    -0.37800
C365        C  0.31392822  0.41224872  0.29181474    -0.04400
C366        C  0.33909795  0.40604617  0.26190360    -0.01500
C367        C  0.31664818  0.40386904  0.23077434     0.03400
C368        C  0.26890272  0.41044687  0.22860369    -0.04400
C369        C  0.24407818  0.41964615  0.25800987    -0.01500
C370        C  0.26604967  0.41971127  0.28939780     0.03400
C371        C  0.38844193  0.40233229  0.26266422     0.38100
C372        C  0.19572232  0.42977611  0.25602950     0.38100
C373        C  0.23829152  0.42609589  0.31904384     0.36500
C374        C  0.34286424  0.39237477  0.20118401     0.36500
N375        N  0.21582653  0.43116192  0.34251576    -0.38300
N376        N  0.36379777  0.38295805  0.17769100    -0.38300
N377        N  0.15723024  0.43801504  0.25442769    -0.37800
N378        N  0.42779152  0.39950529  0.26309155    -0.37800
C379        C  0.44551968  0.50921858  0.38922101    -0.04400
C380        C  0.43969313  0.55204462  0.37336271    -0.01500
C381        C  0.47526027  0.58517739  0.37430572     0.03400
C382        C  0.51618130  0.57533784  0.39133822    -0.04400
C383        C  0.52055683  0.53361444  0.40881003    -0.01500
C384        C  0.48565084  0.50076362  0.40765157     0.03400
C385        C  0.39875086  0.56061704  0.35423796     0.38100
C386        C  0.56225316  0.52289416  0.42675808     0.38100
C387        C  0.49297957  0.45709352  0.42420335     0.36500
C388        C  0.47132935  0.62759613  0.35570845     0.36500
N389        N  0.50130533  0.42296817  0.43753301    -0.38300
N390        N  0.46846924  0.66140542  0.34073179    -0.38300
N391        N  0.59512551  0.51292539  0.44086973    -0.37800
N392        N  0.36606602  0.56741138  0.33891396    -0.37800
C393        C  0.42258415  0.08036437  0.97336009    -0.04400
C394        C  0.45602634  0.06749418  0.99673564    -0.01500
C395        C  0.44386485  0.05924051  0.03037224     0.03400
C396        C  0.39795035  0.06366607  0.04078673    -0.04400
C397        C  0.36422894  0.07480475  0.01681573    -0.01500
C398        C  0.37645738  0.08208244  0.98321413     0.03400
C399        C  0.50253782  0.06029447  0.98587703     0.38100
C400        C  0.31708301  0.08159511  0.02676056     0.38100
C401        C  0.34129596  0.09204267  0.95884171     0.36500
C402        C  0.47863998  0.04557506  0.05403353     0.36500
N403        N  0.31275767  0.09925207  0.93967323    -0.38300
N404        N  0.50638528  0.03479412  0.07293938    -0.38300
N405        N  0.27951866  0.08722148  0.03458408    -0.37800
N406        N  0.53964214  0.05313084  0.97768597    -0.37800
C407        C  0.65539485  0.86881911  0.97887775    -0.04400
C408        C  0.67882458  0.89015269  0.00576659    -0.01500
C409        C  0.66994550  0.87712159  0.03916367     0.03400
C410        C  0.63635083  0.84351854  0.04671922    -0.04400
C411        C  0.61230302  0.82275528  0.01986956    -0.01500
C412        C  0.62135642  0.83561710  0.98643409     0.03400
C413        C  0.71280358  0.92562454  0.99955464     0.38100
C414        C  0.57898755  0.78663969  0.02599526     0.38100
C415        C  0.59629577  0.81284517  0.95991869     0.36500
C416        C  0.69814703  0.89645806  0.06543163     0.36500
N417        N  0.57607315  0.79456902  0.93898895    -0.38300
N418        N  0.72101804  0.91169812  0.08618629    -0.38300
N419        N  0.55283230  0.75736881  0.03044558    -0.37800
N420        N  0.74019822  0.95365821  0.99490157    -0.37800
C421        C  0.63783582  0.00821614  0.87385961    -0.04400
C422        C  0.61241693  0.01644813  0.84450806    -0.01500
C423        C  0.57866991  0.05049728  0.84411945     0.03400
C424        C  0.57023177  0.07689233  0.87293892    -0.04400
C425        C  0.60122239  0.07449648  0.89984172    -0.01500
C426        C  0.63420635  0.03927941  0.90077757     0.03400
C427        C  0.61969959  0.98868894  0.81496847     0.38100
C428        C  0.59811514  0.10689471  0.92707344     0.38100
C429        C  0.66130515  0.03278319  0.93059119     0.36500
C430        C  0.55204629  0.05795480  0.81410262     0.36500
N431        N  0.68266433  0.02765879  0.95454212    -0.38300
N432        N  0.53093632  0.06398551  0.79013979    -0.38300
N433        N  0.59603322  0.13311452  0.94863179    -0.37800
N434        N  0.62538057  0.96653053  0.79143338    -0.37800
C435        C  0.67930771  0.56080309  0.54659928    -0.04400
C436        C  0.71365556  0.56278437  0.52136733    -0.01500
C437        C  0.70293533  0.57680537  0.48855145     0.03400
C438        C  0.65814541  0.58981880  0.48030066    -0.04400
C439        C  0.62357523  0.58680619  0.50486659    -0.01500
C440        C  0.63385765  0.57193972  0.53762788     0.03400
C441        C  0.76096701  0.55278231  0.52896929     0.38100
C442        C  0.57698316  0.59853459  0.49631100     0.38100
C443        C  0.59711702  0.56800494  0.56180696     0.36500
C444        C  0.73896098  0.58060346  0.46372243     0.36500
N445        N  0.56764431  0.56499693  0.58096399    -0.38300
N446        N  0.76772877  0.58377451  0.44401781    -0.38300
N447        N  0.53985703  0.60786464  0.48944966    -0.37800
N448        N  0.79876486  0.54495316  0.53483403    -0.37800
C449        C  0.44486225  0.34458385  0.54138517    -0.04400
C450        C  0.43603418  0.39084232  0.53252270    -0.01500
C451        C  0.42328136  0.40230519  0.49952737     0.03400
C452        C  0.42016177  0.36808505  0.47480297    -0.04400
C453        C  0.43115839  0.32256852  0.48284231    -0.01500
C454        C  0.44352396  0.31071125  0.51571349     0.03400
C455        C  0.44048289  0.42717073  0.55695814     0.38100
C456        C  0.42691431  0.28709383  0.45759627     0.38100
C457        C  0.45289294  0.26281424  0.52263847     0.36500
C458        C  0.41389153  0.44962976  0.49083692     0.36500
N459        N  0.46017158  0.22453265  0.52785455    -0.38300
N460        N  0.40651888  0.48734821  0.48382720    -0.38300
N461        N  0.42328645  0.25886049  0.43753204    -0.37800
N462        N  0.44403993  0.45636042  0.57629263    -0.37800
C463        C  0.45465784  0.24557138  0.72972939    -0.04400
C464        C  0.44448956  0.19806898  0.73164274    -0.01500
C465        C  0.44402792  0.17494006  0.76262994     0.03400
C466        C  0.45345472  0.19886457  0.79272213    -0.04400
C467        C  0.46067280  0.24718286  0.79083228    -0.01500
C468        C  0.46027109  0.27028865  0.75970382     0.03400
C469        C  0.43148257  0.17293333  0.70180567     0.38100
C470        C  0.46763469  0.27420272  0.82078111     0.38100
C471        C  0.46449026  0.31984478  0.75890448     0.36500
C472        C  0.43314013  0.12630880  0.76285306     0.36500
N473        N  0.46710660  0.35942823  0.75855389    -0.38300
N474        N  0.42400872  0.08766727  0.76272471    -0.38300
N475        N  0.47332659  0.29607668  0.84448022    -0.37800
N476        N  0.42084588  0.15287525  0.67815908    -0.37800
C477        C  0.58463764  0.35228740  0.64493216    -0.04400
C478        C  0.59973233  0.36956520  0.67585952    -0.01500
C479        C  0.63414237  0.40338040  0.67689959     0.03400
C480        C  0.65448351  0.41898090  0.64701741    -0.04400
C481        C  0.64378187  0.39713973  0.61657223    -0.01500
C482        C  0.60863079  0.36387357  0.61550935     0.03400
C483        C  0.57901948  0.35325974  0.70656056     0.38100
C484        C  0.66572669  0.41208687  0.58590788     0.38100
C485        C  0.59447389  0.34467640  0.58380119     0.36500
C486        C  0.64713481  0.42365349  0.70854249     0.36500
N487        N  0.58311292  0.32935732  0.55851752    -0.38300
N488        N  0.65728850  0.43984252  0.73381318    -0.38300
N489        N  0.68322912  0.42419201  0.56149041    -0.37800
N490        N  0.56325164  0.33990524  0.73123673    -0.37800
C491        C  0.79403493  0.67076357  0.89786627    -0.04400
C492        C  0.75295506  0.67689193  0.88037793    -0.01500
C493        C  0.73295935  0.72062982  0.87840430     0.03400
C494        C  0.75453167  0.75934321  0.89347606    -0.04400
C495        C  0.79483708  0.75227002  0.91233489    -0.01500
C496        C  0.81437256  0.70828559  0.91442062     0.03400
C497        C  0.73239806  0.63852308  0.86276230     0.38100
C498        C  0.81597583  0.78964527  0.93058640     0.38100
C499        C  0.85512404  0.70138189  0.93432663     0.36500
C500        C  0.69064495  0.72502866  0.85992568     0.36500
N501        N  0.88751427  0.69579917  0.95024777    -0.38300
N502        N  0.65689065  0.72806364  0.84517988    -0.38300
N503        N  0.83293514  0.81929139  0.94525003    -0.37800
N504        N  0.71622520  0.60799724  0.84859111    -0.37800
C505        C  0.89706276  0.56977441  0.98886252    -0.04400
C506        C  0.94348419  0.57334431  0.99823222    -0.01500
C507        C  0.95538807  0.58799021  0.03057434     0.03400
C508        C  0.92116693  0.59608305  0.05463672    -0.04400
C509        C  0.87495169  0.58932077  0.04623665    -0.01500
C510        C  0.86278281  0.57752196  0.01330351     0.03400
C511        C  0.97932303  0.56089780  0.97498784     0.38100
C512        C  0.83958945  0.59703505  0.07101517     0.38100
C513        C  0.81479905  0.57613769  0.00448303     0.36500
C514        C  0.00306816  0.59457183  0.03911669     0.36500
N515        N  0.77648684  0.57531788  0.99756522    -0.38300
N516        N  0.04107202  0.60000529  0.04589903    -0.38300
N517        N  0.81138479  0.60310786  0.09072638    -0.37800
N518        N  0.00796189  0.55066618  0.95660690    -0.37800
C519        C  0.76963642  0.53642112  0.73578004    -0.04400
C520        C  0.78289652  0.49559063  0.75197551    -0.01500
C521        C  0.80391725  0.49736692  0.78364604     0.03400
C522        C  0.81368913  0.54004035  0.79864680    -0.04400
C523        C  0.80219369  0.58093231  0.78182047    -0.01500
C524        C  0.77923921  0.57911845  0.75091485     0.03400
C525        C  0.77418493  0.45166860  0.73632524     0.38100
C526        C  0.81320946  0.62500779  0.79656952     0.38100
C527        C  0.76618866  0.62140755  0.73448395     0.36500
C528        C  0.81628767  0.45526945  0.80059211     0.36500
N529        N  0.75564674  0.65528277  0.72165950    -0.38300
N530        N  0.82619104  0.42177172  0.81420302    -0.38300
N531        N  0.82223039  0.66019079  0.80815512    -0.37800
N532        N  0.76737387  0.41659910  0.72382242    -0.37800
C533        C  0.23085904  0.22442050  0.89061746    -0.04400
C534        C  0.24707022  0.20284818  0.86156524    -0.01500
C535        C  0.29170544  0.18530397  0.86060826     0.03400
C536        C  0.32048538  0.18909348  0.88887272    -0.04400
C537        C  0.30396341  0.21049002  0.91806687    -0.01500
C538        C  0.25932008  0.22828085  0.91883478     0.03400
C539        C  0.21807271  0.19961397  0.83231904     0.38100
C540        C  0.33226992  0.21310620  0.94766745     0.38100
C541        C  0.24303456  0.25151324  0.94845842     0.36500
C542        C  0.30850292  0.16508316  0.82990044     0.36500
N543        N  0.23048199  0.27017131  0.97216445    -0.38300
N544        N  0.32189872  0.14901258  0.80542189    -0.38300
N545        N  0.35470651  0.21499785  0.97135884    -0.37800
N546        N  0.19511549  0.19697615  0.80893709    -0.37800
C547        C  0.13440161  0.33269316  0.98299717    -0.04400
C548        C  0.13384347  0.30064916  0.00978060    -0.01500
C549        C  0.14521952  0.31468522  0.04238178     0.03400
C550        C  0.15877945  0.36031959  0.04851384    -0.04400
C551        C  0.15898471  0.39246365  0.02215984    -0.01500
C552        C  0.14569030  0.37911801  0.98980662     0.03400
C553        C  0.12416556  0.25247965  0.00398146     0.38100
C554        C  0.17255500  0.43962586  0.02835587     0.38100
C555        C  0.14289939  0.41382890  0.96387833     0.36500
C556        C  0.14559825  0.28129150  0.06933845     0.36500
N557        N  0.14059247  0.44158716  0.94328145    -0.38300
N558        N  0.14590534  0.25476320  0.09085194    -0.38300
N559        N  0.18354296  0.47717130  0.03320985    -0.37800
N560        N  0.11675469  0.21397719  0.99956135    -0.37800
C561        C  0.92832751  0.43183632  0.88713418    -0.04400
C562        C  0.93527190  0.40421369  0.91568818    -0.01500
C563        C  0.96861816  0.36943457  0.91513771     0.03400
C564        C  0.99459473  0.36205443  0.88593654    -0.04400
C565        C  0.98441183  0.38671908  0.85657690    -0.01500
C566        C  0.95161571  0.42165435  0.85720855     0.03400
C567        C  0.91080477  0.41389036  0.94634319     0.38100
C568        C  0.00868806  0.37686218  0.82582206     0.38100
C569        C  0.94268892  0.44801146  0.82717496     0.36500
C570        C  0.97873352  0.34392480  0.94531416     0.36500
N571        N  0.93565868  0.46913126  0.80327345    -0.38300
N572        N  0.98693611  0.32366436  0.96940764    -0.38300
N573        N  0.02809867  0.36888790  0.80136422    -0.37800
N574        N  0.89127599  0.42166669  0.97078887    -0.37800
C575        C  0.32878335  0.25454598  0.63305444    -0.04400
C576        C  0.30656263  0.24881701  0.66409282    -0.01500
C577        C  0.26170740  0.23165092  0.66535621     0.03400
C578        C  0.23807280  0.22196038  0.63554496    -0.04400
C579        C  0.25932838  0.23013887  0.60440126    -0.01500
C580        C  0.30489813  0.24599024  0.60317312     0.03400
C581        C  0.32994278  0.26005792  0.69493738     0.38100
C582        C  0.23504750  0.22038975  0.57369087     0.38100
C583        C  0.32686386  0.25425690  0.57124960     0.36500
C584        C  0.24009343  0.22339734  0.69748336     0.36500
N585        N  0.34407543  0.26096145  0.54567469    -0.38300
N586        N  0.22322933  0.21661180  0.72317625    -0.38300
N587        N  0.21569135  0.21263038  0.54918488    -0.37800
N588        N  0.34791093  0.26931188  0.71972182    -0.37800
C589        C  0.17960118  0.07301907  0.48363236    -0.04400
C590        C  0.21324382  0.07892117  0.50884096    -0.01500
C591        C  0.20048428  0.09105935  0.54159990     0.03400
C592        C  0.15427800  0.09855519  0.54951688    -0.04400
C593        C  0.12055865  0.09155401  0.52495266    -0.01500
C594        C  0.13298214  0.07856733  0.49229039     0.03400
C595        C  0.26148608  0.07509304  0.50115547     0.38100
C596        C  0.07273312  0.09702146  0.53349112     0.38100
C597        C  0.09727632  0.07072098  0.46789319     0.36500
C598        C  0.23540052  0.09828521  0.56675704     0.36500
N599        N  0.06863468  0.06466706  0.44853793    -0.38300
N600        N  0.26324760  0.10408793  0.58676019    -0.38300
N601        N  0.03466438  0.10138789  0.54039389    -0.37800
N602        N  0.30000608  0.07218458  0.49521644    -0.37800
C603        C  0.09411238  0.20798124  0.72805486    -0.04400
C604        C  0.11130165  0.25249296  0.73354486    -0.01500
C605        C  0.11115117  0.27138609  0.76591210     0.03400
C606        C  0.09246430  0.24625632  0.79332821    -0.04400
C607        C  0.07071097  0.20344231  0.78660923    -0.01500
C608        C  0.07258009  0.18413384  0.75433508     0.03400
C609        C  0.13130281  0.27826505  0.70603023     0.38100
C610        C  0.04577655  0.17882422  0.81240929     0.38100
C611        C  0.05155955  0.13984560  0.74789642     0.36500
C612        C  0.13145318  0.31644373  0.77038685     0.36500
N613        N  0.03473726  0.10462505  0.74263769    -0.38300
N614        N  0.14785054  0.35232383  0.77367679    -0.38300
N615        N  0.02552902  0.15906216  0.83273799    -0.37800
N616        N  0.14718884  0.29885278  0.68414153    -0.37800
C617        C  0.81542101  0.75496625  0.63814445    -0.04400
C618        C  0.77238610  0.74667977  0.62298641    -0.01500
C619        C  0.75410844  0.70185878  0.62172205     0.03400
C620        C  0.77829411  0.66467626  0.63548465    -0.04400
C621        C  0.82167079  0.67206485  0.64940270    -0.01500
C622        C  0.84030947  0.71660356  0.65073590     0.03400
C623        C  0.74625950  0.78374377  0.60845724     0.38100
C624        C  0.84653427  0.63393753  0.66390340     0.38100
C625        C  0.88521463  0.72172033  0.66562151     0.36500
C626        C  0.71048893  0.69383251  0.60552883     0.36500
N627        N  0.92096766  0.72525990  0.67757494    -0.38300
N628        N  0.67577809  0.68734889  0.59261839    -0.38300
N629        N  0.86630042  0.60362412  0.67547915    -0.37800
N630        N  0.72517419  0.81303469  0.59673756    -0.37800
C631        C  0.93037668  0.85665495  0.55538246    -0.04400
C632        C  0.93730766  0.89200083  0.53180276    -0.01500
C633        C  0.94979656  0.88144525  0.49865650     0.03400
C634        C  0.95554441  0.83523080  0.48881557    -0.04400
C635        C  0.95231508  0.80020363  0.51357960    -0.01500
C636        C  0.93907974  0.81095357  0.54645471     0.03400
C637        C  0.93199590  0.93941540  0.54183734     0.38100
C638        C  0.96044871  0.75245480  0.50547796     0.38100
C639        C  0.93143002  0.77439831  0.57054278     0.36500
C640        C  0.95762309  0.91846664  0.47507181     0.36500
N641        N  0.92512098  0.74507841  0.58951828    -0.38300
N642        N  0.96395234  0.94813042  0.45637484    -0.38300
N643        N  0.96678369  0.71431991  0.49923687    -0.37800
N644        N  0.92802482  0.97721765  0.54991975    -0.37800
C645        C  0.80464810  0.89391535  0.73131050    -0.04400
C646        C  0.78582481  0.93467944  0.74415246    -0.01500
C647        C  0.76063715  0.93381315  0.77428130     0.03400
C648        C  0.75247583  0.89190984  0.79102105    -0.04400
C649        C  0.76969749  0.85095215  0.77746853    -0.01500
C650        C  0.79592707  0.85195570  0.74793960     0.03400
C651        C  0.79324046  0.97775959  0.72694016     0.38100
C652        C  0.76221035  0.80772523  0.79458927     0.38100
C653        C  0.81314163  0.80932994  0.73442672     0.36500
C654        C  0.74341622  0.97614416  0.78822920     0.36500
N655        N  0.82662180  0.77502675  0.72405041    -0.38300
N656        N  0.72992328  0.01000466  0.79936965    -0.38300
N657        N  0.75678588  0.77285484  0.80781914    -0.37800
N658        N  0.79867532  0.01242585  0.71343385    -0.37800
C659        C  0.01103473  0.06842903  0.63505427    -0.04400
C660        C  0.96583073  0.07882826  0.64447863    -0.01500
C661        C  0.93222457  0.04368331  0.64534663     0.03400
C662        C  0.94444075  0.99801320  0.63812105    -0.04400
C663        C  0.98874268  0.98886992  0.62576263    -0.01500
C664        C  0.02139126  0.02399073  0.62360910     0.03400
C665        C  0.95447058  0.12490966  0.65478347     0.38100
C666        C  0.00153637  0.94314514  0.61508054     0.38100
C667        C  0.06601654  0.01401575  0.60949247     0.36500
C668        C  0.88572703  0.05446668  0.65434784     0.36500
N669        N  0.10139566  0.00569555  0.59826240    -0.38300
N670        N  0.84853688  0.06383899  0.66098187    -0.38300
N671        N  0.01317325  0.90723313  0.60651700    -0.37800
N672        N  0.94547406  0.16173070  0.66303334    -0.37800
loop_ 
_geom_bond_atom_site_label_1 
_geom_bond_atom_site_label_2 
_geom_bond_distance 
_geom_bond_site_symmetry_2 
_ccdc_geom_bond_type 
O1            V9   1.918       .  S
O1           C11   1.268       .  A
O2            V9   1.916       .  S
O2           C12   1.271       .  A
O3            V9   1.901       .  S
O3           C13   1.263       .  A
O4            V9   1.891       .  S
O4           C14   1.261       .  A
O5           V10   1.904       .  S
O5           C14   1.266       .  A
O6           V10   1.904       .  S
O6           C13   1.266       .  A
O7           V10   1.871       .  S
O7           C12   1.256       .  A
O8           V10   1.879       .  S
O8           C11   1.260       .  A
V9           V10   2.084       .  T
C11         C662   1.485       .  S
C12         C617   1.506       .  S
C13         C645   1.487       .  S
C14         C631   1.479       .  S
O15          V23   1.913       .  S
O15          C25   1.266       .  A
O16          V23   1.910       .  S
O16          C26   1.267       .  A
O17          V23   1.892       .  S
O17          C27   1.262       .  A
O18          V23   1.898       .  S
O18          C28   1.264       .  A
O19          V24   1.899       .  S
O19          C28   1.264       .  A
O20          V24   1.903       .  S
O20          C27   1.265       .  A
O21          V24   1.880       .  S
O21          C26   1.259       .  A
O22          V24   1.876       .  S
O22          C25   1.261       .  A
V23          V24   2.088       .  T
C25         C659   1.481       .  S
C26         C578   1.474       .  S
C27         C592   1.482       .  S
C28         C603   1.482       .  S
O29          V37   1.910       .  S
O29          C39   1.266       .  A
O30          V37   1.911       .  S
O30          C40   1.266       .  A
O31          V37   1.895       .  S
O31          C41   1.264       .  A
O32          V37   1.901       .  S
O32          C42   1.265       .  A
O33          V38   1.896       .  S
O33          C42   1.265       .  A
O34          V38   1.896       .  S
O34          C41   1.265       .  A
O35          V38   1.887       .  S
O35          C40   1.259       .  A
O36          V38   1.885       .  S
O36          C39   1.261       .  A
V37          V38   2.083       .  T
C39         C564   1.480   1_455  S
C40         C533   1.475       .  S
C41         C547   1.497       .  S
C42         C606   1.509       .  S
O43          V51   1.908       .  S
O43          C53   1.265       .  A
O44          V51   1.907       .  S
O44          C54   1.267       .  A
O45          V51   1.895       .  S
O45          C55   1.263       .  A
O46          V51   1.893       .  S
O46          C56   1.262       .  A
O47          V52   1.903       .  S
O47          C56   1.267       .  A
O48          V52   1.907       .  S
O48          C55   1.266       .  A
O49          V52   1.886       .  S
O49          C54   1.260       .  A
O50          V52   1.889       .  S
O50          C53   1.262       .  A
V51          V52   2.087       .  T
C53         C561   1.481       .  S
C54         C491   1.481       .  S
C55         C522   1.483       .  S
C56         C505   1.494       .  S
O57          V65   1.911       .  S
O57          C67   1.266       .  A
O58          V65   1.912       .  S
O58          C68   1.267       .  A
O59          V65   1.881       .  S
O59          C69   1.259       .  A
O60          V65   1.886       .  S
O60          C70   1.262       .  A
O61          V66   1.915       .  S
O61          C70   1.269       .  A
O62          V66   1.917       .  S
O62          C69   1.270       .  A
O63          V66   1.882       .  S
O63          C68   1.258       .  A
O64          V66   1.887       .  S
O64          C67   1.261       .  A
V65          V66   2.085       .  T
C67         C477   1.478       .  S
C68         C575   1.474       .  S
C69         C449   1.507       .  S
C70         C463   1.500       .  S
O71          V79   1.905       .  S
O71          C81   1.264       .  A
O72          V79   1.903       .  S
O72          C82   1.266       .  A
O73          V79   1.898       .  S
O73          C83   1.263       .  A
O74          V79   1.892       .  S
O74          C84   1.263       .  A
O75          V80   1.911       .  S
O75          C84   1.268       .  A
O76          V80   1.909       .  S
O76          C83   1.267       .  A
O77          V80   1.883       .  S
O77          C82   1.260       .  A
O78          V80   1.890       .  S
O78          C81   1.262       .  A
V79          V80   2.086       .  T
C81         C480   1.478       .  S
C82         C620   1.480       .  S
C83         C519   1.486       .  S
C84         C435   1.508       .  S
O85          V93   1.917       .  S
O85          C95   1.269       .  A
O86          V93   1.913       .  S
O86          C96   1.270       .  A
O87          V93   1.892       .  S
O87          C97   1.261       .  A
O88          V93   1.889       .  S
O88          C98   1.262       .  A
O89          V94   1.910       .  S
O89          C98   1.268       .  A
O90          V94   1.913       .  S
O90          C97   1.268       .  A
O91          V94   1.884       .  S
O91          C96   1.260       .  A
O92          V94   1.884       .  S
O92          C95   1.262       .  A
V93          V94   2.078       .  T
C95         C421   1.489   1_565  S
C96         C494   1.503       .  S
C97         C648   1.483       .  S
C98         C407   1.506       .  S
O99         V107   1.914       .  S
O99         C109   1.267       .  A
O100        V107   1.912       .  S
O100        C110   1.268       .  A
O101        V107   1.898       .  S
O101        C111   1.263       .  A
O102        V107   1.899       .  S
O102        C112   1.264       .  A
O103        V108   1.901       .  S
O103        C112   1.266       .  A
O104        V108   1.905       .  S
O104        C111   1.265       .  A
O105        V108   1.884       .  S
O105        C110   1.260       .  A
O106        V108   1.888       .  S
O106        C109   1.263       .  A
V107        V108   2.084       .  T
C109        C424   1.490       .  S
C110        C536   1.486       .  S
C111        C393   1.480       .  S
C112        C466   1.511       .  S
O113        V121   1.918       .  S
O113        C123   1.268       .  A
O114        V121   1.921       .  S
O114        C124   1.271       .  A
O115        V121   1.893       .  S
O115        C125   1.261       .  A
O116        V121   1.895       .  S
O116        C126   1.263       .  A
O117        V122   1.907       .  S
O117        C126   1.268       .  A
O118        V122   1.903       .  S
O118        C125   1.267       .  A
O119        V122   1.867       .  S
O119        C124   1.256       .  A
O120        V122   1.877       .  S
O120        C123   1.259       .  A
V121        V122   2.082       .  T
C123        C379   1.478       .  S
C124        C351   1.499       .  S
C125        C452   1.483       .  S
C126        C365   1.507       .  S
O127        V135   1.913       .  S
O127        C137   1.266       .  A
O128        V135   1.908       .  S
O128        C138   1.267       .  A
O129        V135   1.897       .  S
O129        C139   1.263       .  A
O130        V135   1.895       .  S
O130        C140   1.262       .  A
O131        V136   1.910       .  S
O131        C140   1.268       .  A
O132        V136   1.908       .  S
O132        C139   1.267       .  A
O133        V136   1.877       .  S
O133        C138   1.258       .  A
O134        V136   1.877       .  S
O134        C137   1.260       .  A
V135        V136   2.088       .  T
C137        C382   1.476       .  S
C138        C323   1.472       .  S
C139        C340   1.490       .  S
C140        C438   1.491       .  S
O141        V149   1.917   1_455  S
O141        C151   1.267       .  A
O142        V149   1.912       .  S
O142        C152   1.267       .  A
O143        V149   1.896       .  S
O143        C153   1.263       .  A
O144        V149   1.891       .  S
O144        C154   1.262       .  A
O145        V150   1.903       .  S
O145        C154   1.265       .  A
O146        V150   1.900       .  S
O146        C153   1.266       .  A
O147        V150   1.887       .  S
O147        C152   1.261       .  A
O148        V150   1.890       .  S
O148        C151   1.263   1_655  A
V149        V150   2.087       .  T
C151        C309   1.488       .  S
C152        C281   1.481       .  S
C153        C295   1.486       .  S
C154        C508   1.480       .  S
O155        V163   1.926       .  S
O155        C165   1.270       .  A
O156        V163   1.924       .  S
O156        C166   1.272       .  A
O157        V163   1.889       .  S
O157        C167   1.261       .  A
O158        V163   1.893       .  S
O158        C168   1.262       .  A
O159        V164   1.908       .  S
O159        C168   1.268       .  A
O160        V164   1.902       .  S
O160        C167   1.266       .  A
O161        V164   1.877       .  S
O161        C166   1.258       .  A
O162        V164   1.882       .  S
O162        C165   1.260       .  A
V163        V164   2.084       .  T
C165        C312   1.487       .  S
C166        C267   1.509       .  S
C167        C550   1.481       .  S
C168        C368   1.495       .  S
O169        V177   1.915   1_565  S
O169        C179   1.267       .  A
O170        V177   1.916       .  S
O170        C180   1.269       .  A
O171        V177   1.887       .  S
O171        C181   1.262       .  A
O172        V177   1.893       .  S
O172        C182   1.261       .  A
O173        V178   1.906       .  S
O173        C182   1.267       .  A
O174        V178   1.907       .  S
O174        C181   1.267       .  A
O175        V178   1.886       .  S
O175        C180   1.260       .  A
O176        V178   1.888       .  S
O176        C179   1.261   1_545  A
V177        V178   2.086       .  T
C179        C256   1.484       .  S
C180        C270   1.486       .  S
C181        C396   1.490       .  S
C182        C242   1.482       .  S
O183        V191   1.920       .  S
O183        C193   1.268       .  A
O184        V191   1.912       .  S
O184        C194   1.267       .  A
O185        V191   1.896       .  S
O185        C195   1.264       .  A
O186        V191   1.891       .  S
O186        C196   1.262       .  A
O187        V192   1.910       .  S
O187        C196   1.269       .  A
O188        V192   1.909       .  S
O188        C195   1.268       .  A
O189        V192   1.889       .  S
O189        C194   1.260       .  A
O190        V192   1.887       .  S
O190        C193   1.261       .  A
V191        V192   2.082       .  T
C193        C253   1.488       .  S
C194        C284   1.479       .  S
C195        C337   1.515       .  S
C196        C410   1.506       .  S
O197        V205   1.909   1_455  S
O197        C207   1.266       .  A
O198        V205   1.912       .  S
O198        C208   1.267       .  A
O199        V205   1.883       .  S
O199        C209   1.260       .  A
O200        V205   1.881       .  S
O200        C210   1.259       .  A
O201        V206   1.915       .  S
O201        C210   1.270       .  A
O202        V206   1.914       .  S
O202        C209   1.270       .  A
O203        V206   1.879       .  S
O203        C208   1.257       .  A
O204        V206   1.878   1_455  S
O204        C207   1.259       .  A
V205        V206   2.084       .  T
C207        C225   1.474       .  S
C208        C326   1.472       .  S
C209        C298   1.511       .  S
C210        C634   1.499       .  S
O211        V219   1.904   1_565  S
O211        C221   1.264       .  A
O212        V219   1.904       .  S
O212        C222   1.266       .  A
O213        V219   1.894       .  S
O213        C223   1.263       .  A
O214        V219   1.898       .  S
O214        C224   1.263       .  A
O215        V220   1.904       .  S
O215        C224   1.265       .  A
O216        V220   1.901       .  S
O216        C223   1.266       .  A
O217        V220   1.884       .  S
O217        C222   1.259       .  A
O218        V220   1.885       .  S
O218        C221   1.262   1_545  A
V219        V220   2.087       .  T
C221        C228   1.476       .  S
C222        C354   1.476       .  S
C223        C589   1.500       .  S
C224        C239   1.481       .  S
C225        C226   1.411       .  A
C225        C230   1.411       .  A
C226        C227   1.405       .  A
C226        C231   1.453       .  S
C227        C228   1.411       .  A
C227        C234   1.453       .  S
C228        C229   1.413       .  A
C229        C230   1.412       .  A
C229        C232   1.450       .  S
C230        C233   1.451       .  S
C231        N238   1.157       .  T
C232        N237   1.157       .  T
C233        N235   1.157       .  T
C234        N236   1.157       .  T
C239        C240   1.412       .  A
C239        C244   1.412       .  A
C240        C241   1.413       .  A
C240        C245   1.451   1_545  S
C241        C242   1.414       .  A
C241        C248   1.451   1_545  S
C242        C243   1.412       .  A
C243        C244   1.409       .  A
C243        C246   1.451       .  S
C244        C247   1.451       .  S
C245        N252   1.157       .  T
C246        N251   1.157       .  T
C247        N249   1.157       .  T
C248        N250   1.157       .  T
C253        C254   1.413       .  A
C253        C258   1.414       .  A
C254        C255   1.410       .  A
C254        C259   1.452       .  S
C255        C256   1.412       .  A
C255        C262   1.452       .  S
C256        C257   1.412       .  A
C257        C258   1.415       .  A
C257        C260   1.451       .  S
C258        C261   1.447       .  S
C259        N266   1.157       .  T
C260        N265   1.157       .  T
C261        N263   1.156       .  T
C262        N264   1.157       .  T
C267        C268   1.421       .  A
C267        C272   1.429       .  A
C268        C269   1.415       .  A
C268        C273   1.451       .  S
C269        C270   1.413       .  A
C269        C276   1.453       .  S
C270        C271   1.406       .  A
C271        C272   1.411       .  A
C271        C274   1.453       .  S
C272        C275   1.453       .  S
C273        N280   1.158       .  T
C274        N279   1.157       .  T
C275        N277   1.158       .  T
C276        N278   1.157       .  T
C281        C282   1.413       .  A
C281        C286   1.412       .  A
C282        C283   1.413       .  A
C282        C287   1.451       .  S
C283        C284   1.411       .  A
C283        C290   1.451       .  S
C284        C285   1.411       .  A
C285        C286   1.409       .  A
C285        C288   1.450       .  S
C286        C289   1.453       .  S
C287        N294   1.157       .  T
C288        N293   1.157       .  T
C289        N291   1.157       .  T
C290        N292   1.157       .  T
C295        C296   1.413       .  A
C295        C300   1.406       .  A
C296        C297   1.414       .  A
C296        C301   1.453       .  S
C297        C298   1.423       .  A
C297        C304   1.451       .  S
C298        C299   1.430       .  A
C299        C300   1.411       .  A
C299        C302   1.453   1_655  S
C300        C303   1.454   1_655  S
C301        N308   1.157       .  T
C302        N307   1.158       .  T
C303        N305   1.157       .  T
C304        N306   1.158       .  T
C309        C310   1.415       .  A
C309        C314   1.413       .  A
C310        C311   1.422       .  A
C310        C315   1.449       .  S
C311        C312   1.413       .  A
C311        C318   1.448       .  S
C312        C313   1.412       .  A
C313        C314   1.404       .  A
C313        C316   1.452       .  S
C314        C317   1.454       .  S
C315        N322   1.157       .  T
C316        N321   1.157       .  T
C317        N319   1.157   1_455  T
C318        N320   1.157       .  T
C323        C324   1.411       .  A
C323        C328   1.412       .  A
C324        C325   1.410       .  A
C324        C329   1.451       .  S
C325        C326   1.411       .  A
C325        C332   1.448       .  S
C326        C327   1.411       .  A
C327        C328   1.405       .  A
C327        C330   1.452       .  S
C328        C331   1.453       .  S
C329        N336   1.157       .  T
C330        N335   1.157       .  T
C331        N333   1.157       .  T
C332        N334   1.156       .  T
C337        C338   1.425       .  A
C337        C342   1.428       .  A
C338        C339   1.415       .  A
C338        C343   1.452       .  S
C339        C340   1.412       .  A
C339        C346   1.453       .  S
C340        C341   1.408       .  A
C341        C342   1.415       .  A
C341        C344   1.453       .  S
C342        C345   1.451       .  S
C343        N350   1.158       .  T
C344        N349   1.157       .  T
C345        N347   1.158       .  T
C346        N348   1.157       .  T
C351        C352   1.419       .  A
C351        C356   1.428       .  A
C352        C353   1.412       .  A
C352        C357   1.451       .  S
C353        C354   1.412       .  A
C353        C360   1.453       .  S
C354        C355   1.404       .  A
C355        C356   1.406       .  A
C355        C358   1.454       .  S
C356        C359   1.454       .  S
C357        N364   1.157       .  T
C358        N363   1.157       .  T
C359        N361   1.158       .  T
C360        N362   1.157       .  T
C365        C366   1.419       .  A
C365        C370   1.426       .  A
C366        C367   1.413       .  A
C366        C371   1.452       .  S
C367        C368   1.417       .  A
C367        C374   1.453       .  S
C368        C369   1.411       .  A
C369        C370   1.414       .  A
C369        C372   1.453       .  S
C370        C373   1.452       .  S
C371        N378   1.158       .  T
C372        N377   1.157       .  T
C373        N375   1.158       .  T
C374        N376   1.158       .  T
C379        C380   1.412       .  A
C379        C384   1.413       .  A
C380        C381   1.418       .  A
C380        C385   1.448       .  S
C381        C382   1.413       .  A
C381        C388   1.449       .  S
C382        C383   1.410       .  A
C383        C384   1.399       .  A
C383        C386   1.455       .  S
C384        C387   1.453       .  S
C385        N392   1.157       .  T
C386        N391   1.157       .  T
C387        N389   1.157       .  T
C388        N390   1.157       .  T
C393        C394   1.410       .  A
C393        C398   1.410       .  A
C394        C395   1.413   1_556  A
C394        C399   1.448       .  S
C395        C396   1.416       .  A
C395        C402   1.451       .  S
C396        C397   1.419       .  A
C397        C398   1.408   1_554  A
C397        C400   1.453       .  S
C398        C401   1.452       .  S
C399        N406   1.156       .  T
C400        N405   1.157       .  T
C401        N403   1.157       .  T
C402        N404   1.157       .  T
C407        C408   1.422   1_556  A
C407        C412   1.418       .  A
C408        C409   1.414       .  A
C408        C413   1.453   1_554  S
C409        C410   1.417       .  A
C409        C416   1.453       .  S
C410        C411   1.422       .  A
C411        C412   1.415   1_554  A
C411        C414   1.453       .  S
C412        C415   1.453       .  S
C413        N420   1.157       .  T
C414        N419   1.158       .  T
C415        N417   1.158       .  T
C416        N418   1.158       .  T
C421        C422   1.415       .  A
C421        C426   1.415       .  A
C422        C423   1.407       .  A
C422        C427   1.452   1_545  S
C423        C424   1.412       .  A
C423        C430   1.452       .  S
C424        C425   1.413       .  A
C425        C426   1.417       .  A
C425        C428   1.449       .  S
C426        C429   1.449       .  S
C427        N434   1.157       .  T
C428        N433   1.157       .  T
C429        N431   1.157       .  T
C430        N432   1.157       .  T
C435        C436   1.426       .  A
C435        C440   1.421       .  A
C436        C437   1.413       .  A
C436        C441   1.452       .  S
C437        C438   1.409       .  A
C437        C444   1.453       .  S
C438        C439   1.414       .  A
C439        C440   1.415       .  A
C439        C442   1.452       .  S
C440        C443   1.451       .  S
C441        N448   1.158       .  T
C442        N447   1.157       .  T
C443        N445   1.158       .  T
C444        N446   1.157       .  T
C449        C450   1.421       .  A
C449        C454   1.429       .  A
C450        C451   1.415       .  A
C450        C455   1.451       .  S
C451        C452   1.411       .  A
C451        C458   1.452       .  S
C452        C453   1.406       .  A
C453        C454   1.410       .  A
C453        C456   1.455       .  S
C454        C457   1.453       .  S
C455        N462   1.158       .  T
C456        N461   1.157       .  T
C457        N459   1.158       .  T
C458        N460   1.157       .  T
C463        C464   1.418       .  A
C463        C468   1.412       .  A
C464        C465   1.412       .  A
C464        C469   1.455       .  S
C465        C466   1.422       .  A
C465        C472   1.453       .  S
C466        C467   1.427       .  A
C467        C468   1.417       .  A
C467        C470   1.452       .  S
C468        C471   1.451       .  S
C469        N476   1.158       .  T
C470        N475   1.158       .  T
C471        N473   1.158       .  T
C472        N474   1.158       .  T
C477        C478   1.410       .  A
C477        C482   1.411       .  A
C478        C479   1.408       .  A
C478        C483   1.449       .  S
C479        C480   1.410       .  A
C479        C486   1.451       .  S
C480        C481   1.413       .  A
C481        C482   1.412       .  A
C481        C484   1.451       .  S
C482        C485   1.450       .  S
C483        N490   1.156       .  T
C484        N489   1.157       .  T
C485        N487   1.157       .  T
C486        N488   1.157       .  T
C491        C492   1.407       .  A
C491        C496   1.412       .  A
C492        C493   1.411       .  A
C492        C497   1.454       .  S
C493        C494   1.428       .  A
C493        C500   1.453       .  S
C494        C495   1.420       .  A
C495        C496   1.412       .  A
C495        C498   1.451       .  S
C496        C499   1.453       .  S
C497        N504   1.157       .  T
C498        N503   1.158       .  T
C499        N501   1.157       .  T
C500        N502   1.158       .  T
C505        C506   1.416       .  A
C505        C510   1.422   1_556  A
C506        C507   1.410   1_556  A
C506        C511   1.451       .  S
C507        C508   1.412       .  A
C507        C514   1.452   1_655  S
C508        C509   1.410       .  A
C509        C510   1.411       .  A
C509        C512   1.453       .  S
C510        C513   1.452       .  S
C511        N518   1.157   1_655  T
C512        N517   1.157       .  T
C513        N515   1.158   1_554  T
C514        N516   1.158       .  T
C519        C520   1.413       .  A
C519        C524   1.414       .  A
C520        C521   1.413       .  A
C520        C525   1.450       .  S
C521        C522   1.412       .  A
C521        C528   1.451       .  S
C522        C523   1.412       .  A
C523        C524   1.412       .  A
C523        C526   1.452       .  S
C524        C527   1.451       .  S
C525        N532   1.157       .  T
C526        N531   1.157       .  T
C527        N529   1.157       .  T
C528        N530   1.157       .  T
C533        C534   1.408       .  A
C533        C538   1.411       .  A
C534        C535   1.409       .  A
C534        C539   1.452       .  S
C535        C536   1.418       .  A
C535        C542   1.453       .  S
C536        C537   1.414       .  A
C537        C538   1.412       .  A
C537        C540   1.451       .  S
C538        C541   1.450       .  S
C539        N546   1.157       .  T
C540        N545   1.157       .  T
C541        N543   1.157       .  T
C542        N544   1.158       .  T
C547        C548   1.422   1_556  A
C547        C552   1.420       .  A
C548        C549   1.410       .  A
C548        C553   1.452       .  S
C549        C550   1.410       .  A
C549        C556   1.453       .  S
C550        C551   1.411       .  A
C551        C552   1.410   1_554  A
C551        C554   1.453       .  S
C552        C555   1.452       .  S
C553        N560   1.158   1_554  T
C554        N559   1.157       .  T
C555        N557   1.158       .  T
C556        N558   1.157       .  T
C561        C562   1.414       .  A
C561        C566   1.412       .  A
C562        C563   1.414       .  A
C562        C567   1.451       .  S
C563        C564   1.413       .  A
C563        C570   1.451       .  S
C564        C565   1.411       .  A
C565        C566   1.406       .  A
C565        C568   1.452   1_655  S
C566        C569   1.452       .  S
C567        N574   1.157       .  T
C568        N573   1.157       .  T
C569        N571   1.157       .  T
C570        N572   1.157       .  T
C575        C576   1.412       .  A
C575        C580   1.411       .  A
C576        C577   1.405       .  A
C576        C581   1.452       .  S
C577        C578   1.411       .  A
C577        C584   1.453       .  S
C578        C579   1.413       .  A
C579        C580   1.412       .  A
C579        C582   1.451       .  S
C580        C583   1.450       .  S
C581        N588   1.157       .  T
C582        N587   1.157       .  T
C583        N585   1.157       .  T
C584        N586   1.157       .  T
C589        C590   1.423       .  A
C589        C594   1.420       .  A
C590        C591   1.411       .  A
C590        C595   1.452       .  S
C591        C592   1.410       .  A
C591        C598   1.453       .  S
C592        C593   1.411       .  A
C593        C594   1.411       .  A
C593        C596   1.453       .  S
C594        C597   1.452       .  S
C595        N602   1.158       .  T
C596        N601   1.157       .  T
C597        N599   1.157       .  T
C598        N600   1.157       .  T
C603        C604   1.409       .  A
C603        C608   1.407       .  A
C604        C605   1.411       .  A
C604        C609   1.454       .  S
C605        C606   1.426       .  A
C605        C612   1.452       .  S
C606        C607   1.426       .  A
C607        C608   1.413       .  A
C607        C610   1.451       .  S
C608        C611   1.453       .  S
C609        N616   1.157       .  T
C610        N615   1.158       .  T
C611        N613   1.157       .  T
C612        N614   1.158       .  T
C617        C618   1.421       .  A
C617        C622   1.432       .  A
C618        C619   1.412       .  A
C618        C623   1.451       .  S
C619        C620   1.412       .  A
C619        C626   1.453       .  S
C620        C621   1.406       .  A
C621        C622   1.408       .  A
C621        C624   1.455       .  S
C622        C625   1.454       .  S
C623        N630   1.158       .  T
C624        N629   1.157       .  T
C625        N627   1.158       .  T
C626        N628   1.157       .  T
C631        C632   1.411       .  A
C631        C636   1.407       .  A
C632        C633   1.412       .  A
C632        C637   1.452       .  S
C633        C634   1.417       .  A
C633        C640   1.451       .  S
C634        C635   1.426       .  A
C635        C636   1.409       .  A
C635        C638   1.453       .  S
C636        C639   1.453       .  S
C637        N644   1.157       .  T
C638        N643   1.158       .  T
C639        N641   1.157       .  T
C640        N642   1.157       .  T
C645        C646   1.413       .  A
C645        C650   1.414       .  A
C646        C647   1.414       .  A
C646        C651   1.448       .  S
C647        C648   1.412       .  A
C647        C654   1.451       .  S
C648        C649   1.410       .  A
C649        C650   1.410       .  A
C649        C652   1.450       .  S
C650        C653   1.451       .  S
C651        N658   1.156   1_565  T
C652        N657   1.156       .  T
C653        N655   1.157       .  T
C654        N656   1.157   1_565  T
C659        C660   1.413   1_455  A
C659        C664   1.412       .  A
C660        C661   1.418       .  A
C660        C665   1.449       .  S
C661        C662   1.413   1_545  A
C661        C668   1.446       .  S
C662        C663   1.417       .  A
C663        C664   1.401   1_665  A
C663        C666   1.454   1_655  S
C664        C667   1.456       .  S
C665        N672   1.157       .  T
C666        N671   1.157       .  T
C667        N669   1.157       .  T
C668        N670   1.157       .  T
