geometry optimzed in LAMMPS
_audit_creation_date              2020-12-01 
_audit_creation_method            'lammps2cif' 
_symmetry_space_group_name_H-M    'P1' 
_symmetry_Int_Tables_number       1 
_symmetry_cell_setting            triclinic 
loop_ 
_symmetry_equiv_pos_as_xyz 
  x,y,z 
_cell_length_a                    41.49448699 
_cell_length_b                    41.59048468183839 
_cell_length_c                    38.456765057926695 
_cell_angle_alpha                 88.13361843221251 
_cell_angle_beta                  89.84196720539933 
_cell_angle_gamma                 90.58502625095335 
loop_ 
_atom_site_label 
_atom_site_type_symbol 
_atom_site_fract_x 
_atom_site_fract_y 
_atom_site_fract_z 
_atom_site_charge 
O1          O  0.41826517  0.00390252  0.62149382    -0.74900
O2          O  0.32752162  0.01626116  0.64603461    -0.75700
O3          O  0.38685730  0.03125061  0.67485813    -0.75000
O4          O  0.36009304  0.99430822  0.59193345    -0.75100
O5          O  0.35772270  0.44888442  0.62098286    -0.75000
O6          O  0.38921138  0.98342068  0.70210906    -0.75000
O7          O  0.33173264  0.47038994  0.68111976    -0.74900
O8          O  0.41591819  0.45180554  0.65258725    -0.75000
Ni9        Ni  0.37313540  0.01332301  0.63289004     1.25400
Ni10       Ni  0.37417052  0.46069122  0.66732203     1.25400
C11         C  0.43046524  0.97628652  0.63014282     0.87300
C12         C  0.31284622  0.99301163  0.66292597     0.87200
C13         C  0.39556065  0.01396961  0.70094098     0.87200
C14         C  0.35782857  0.47002474  0.59543325     0.87400
O15         O  0.46239996  0.06401848  0.89204089    -0.74900
O16         O  0.44698158  0.15339252  0.86197279    -0.74900
O17         O  0.43787121  0.09273589  0.83387747    -0.75000
O18         O  0.46598526  0.12244009  0.92023876    -0.75100
O19         O  0.51647816  0.12806478  0.90100936    -0.75000
O20         O  0.48787611  0.09374195  0.81269554    -0.75000
O21         O  0.49620775  0.15406492  0.83923352    -0.74900
O22         O  0.51251809  0.07063936  0.87249957    -0.75000
Ni23       Ni  0.45129787  0.10813446  0.87741453     1.25400
Ni24       Ni  0.50489193  0.11203644  0.85535713     1.25400
C25         C  0.49113517  0.05315556  0.88744282     0.87300
C26         C  0.47102176  0.16901846  0.84784973     0.87200
C27         C  0.45793372  0.08526150  0.81045338     0.87200
C28         C  0.49532156  0.12942502  0.92563500     0.87400
O29         O  0.08295633  0.41612907  0.63138642    -0.74900
O30         O  0.17251042  0.43359227  0.65674025    -0.74900
O31         O  0.11536070  0.41927365  0.69124510    -0.75000
O32         O  0.13939292  0.42548914  0.59653746    -0.75100
O33         O  0.13267617  0.47861826  0.59481523    -0.75000
O34         O  0.09972204  0.47022335  0.69043336    -0.75000
O35         O  0.15997660  0.48543521  0.65900004    -0.74900
O36         O  0.07600610  0.46919005  0.62629330    -0.75000
Ni37       Ni  0.12827396  0.42178609  0.64411797     1.25400
Ni38       Ni  0.11725280  0.47789930  0.64295640     1.25400
C39         C  0.06494674  0.44075397  0.62492155     0.87300
C40         C  0.18088745  0.46321813  0.66098133     0.87200
C41         C  0.09872428  0.44143832  0.70435508     0.87200
C42         C  0.13838196  0.45210351  0.57940717     0.87400
O43         O  0.04693017  0.40032376  0.89567071    -0.74900
O44         O  0.03211485  0.31274958  0.86564215    -0.74900
O45         O  0.04688100  0.37147480  0.83378724    -0.75000
O46         O  0.03718962  0.34248137  0.92735354    -0.75100
O47         O  0.48432919  0.35066681  0.92567481    -0.75000
O48         O  0.99473734  0.38326124  0.82958357    -0.75000
O49         O  0.97988717  0.32404606  0.86173758    -0.74900
O50         O  0.99382961  0.40737541  0.89322726    -0.75000
Ni51       Ni  0.04264469  0.35617907  0.88048096     1.25400
Ni52       Ni  0.98623325  0.36631886  0.87716911     1.25400
C53         C  0.02183735  0.41786695  0.89995906     0.87300
C54         C  0.00269083  0.30394362  0.85997665     0.87200
C55         C  0.02373412  0.38455436  0.81716314     0.87200
C56         C  0.01018759  0.34398736  0.94283864     0.87400
O57         O  0.05303600  0.06799216  0.11725183    -0.74900
O58         O  0.04058650  0.15556313  0.14798698    -0.74900
O59         O  0.05820881  0.09734211  0.17876353    -0.75000
O60         O  0.04006595  0.12533800  0.08677689    -0.75100
O61         O  0.98755657  0.11562311  0.09433498    -0.75000
O62         O  0.00683921  0.08388367  0.18862907    -0.75000
O63         O  0.98900013  0.14295582  0.15800122    -0.74900
O64         O  0.00045351  0.05958804  0.12568433    -0.75000
Ni65       Ni  0.04985186  0.11216045  0.13268477     1.25400
Ni66       Ni  0.99407524  0.10050811  0.14235382     1.25400
C67         C  0.02770353  0.04984113  0.11565499     0.87300
C68         C  0.01167420  0.16380929  0.15612673     0.87200
C69         C  0.03679818  0.08324211  0.19771577     0.87200
C70         C  0.01181549  0.12302314  0.07445227     0.87400
O71         O  0.07657669  0.99996322  0.39003684    -0.74900
O72         O  0.16751421  0.01305967  0.36428976    -0.74900
O73         O  0.10828669  0.02735961  0.33475922    -0.75000
O74         O  0.13491335  0.99088881  0.42033254    -0.75100
O75         O  0.13096435  0.44022899  0.40654876    -0.75000
O76         O  0.10595843  0.97974801  0.31029465    -0.75000
O77         O  0.15676765  0.46361559  0.34561221    -0.74900
O78         O  0.07249776  0.45018478  0.37833912    -0.75000
Ni79       Ni  0.12182559  0.00968960  0.37798289     1.25400
Ni80       Ni  0.11418563  0.45661418  0.36136522     1.25400
C81         C  0.06367984  0.97257838  0.38262619     0.87300
C82         C  0.18151568  0.98970940  0.34893170     0.87200
C83         C  0.10118313  0.01046222  0.30886279     0.87200
C84         C  0.13644157  0.45947810  0.43175170     0.87400
O85         O  0.40841452  0.41786951  0.40511912    -0.74900
O86         O  0.31941725  0.42838305  0.37322451    -0.74900
O87         O  0.37815001  0.41262941  0.34306795    -0.75000
O88         O  0.35078956  0.42883599  0.43488047    -0.75100
O89         O  0.35891082  0.48127154  0.42563111    -0.75000
O90         O  0.39004862  0.46419181  0.33210565    -0.75000
O91         O  0.33075806  0.48008376  0.36178712    -0.74900
O92         O  0.41531117  0.47056187  0.39538669    -0.75000
Ni93       Ni  0.36367305  0.41999945  0.38905134     1.25400
Ni94       Ni  0.37373695  0.47585374  0.37802781     1.25400
C95         C  0.42592168  0.44367226  0.40647380     0.87300
C96         C  0.31023772  0.45716655  0.36456537     0.87200
C97         C  0.39146753  0.43442325  0.32360801     0.87200
C98         C  0.35166778  0.45718001  0.44632154     0.87400
O99         O  0.46645582  0.40343307  0.12682219    -0.74900
O100        O  0.45655134  0.31277226  0.15536800    -0.74900
O101        O  0.44404261  0.37132338  0.18503118    -0.75000
O102        O  0.47353357  0.34604638  0.09746963    -0.75100
O103        O  0.02457245  0.34499632  0.11576776    -0.75000
O104        O  0.49376163  0.37335285  0.20636525    -0.75000
O105        O  0.50625737  0.31489887  0.17661186    -0.74900
O106        O  0.51658513  0.40110537  0.14669541    -0.75000
Ni107      Ni  0.45822810  0.35839049  0.14082107     1.25400
Ni108      Ni  0.51196052  0.35840291  0.16229919     1.25400
C109        C  0.49441832  0.41662429  0.13118571     0.87300
C110        C  0.48140695  0.29858949  0.16878937     0.87200
C111        C  0.46311078  0.37782361  0.20977452     0.87200
C112        C  0.50316181  0.34141605  0.09147518     0.87400
C113        C  0.39991691  0.39355133  0.27866015    -0.09600
C114        C  0.40980953  0.42296536  0.29251085     0.06500
C115        C  0.43968071  0.43628706  0.28066759    -0.03400
C116        C  0.45810942  0.42059800  0.25519948    -0.07900
C117        C  0.44775069  0.39118558  0.24151591     0.05700
C118        C  0.41840527  0.37773098  0.25409069    -0.02900
Br119      Br  0.40273886  0.33661347  0.23964477    -0.02600
H120        H  0.37775034  0.38209444  0.28772732     0.09600
H121        H  0.48023638  0.43175221  0.24560614     0.07600
Br122      Br  0.45747313  0.47463767  0.29966977    -0.03000
C123        C  0.51496037  0.97239286  0.42092323    -0.09600
C124        C  0.02602665  0.45926972  0.41087082     0.06500
C125        C  0.01375885  0.42754073  0.40547475    -0.03400
C126        C  0.98070152  0.42115546  0.40830476    -0.07900
C127        C  0.45972927  0.44416695  0.41825632     0.05700
C128        C  0.47301836  0.47278997  0.43153866    -0.02900
Br129      Br  0.46242860  0.97628463  0.46920763    -0.02600
H130        H  0.52720736  0.98785053  0.43894513     0.09600
H131        H  0.97114289  0.39835059  0.39987297     0.07600
Br132      Br  0.03970199  0.39139621  0.39331196    -0.03000
C133        C  0.25608168  0.45073040  0.33574391    -0.09600
C134        C  0.27553842  0.46582265  0.36010632     0.06500
C135        C  0.26207747  0.49129773  0.37883595    -0.03400
C136        C  0.23788110  0.00887592  0.36158497    -0.07900
C137        C  0.20965558  0.48424991  0.35098741     0.05700
C138        C  0.22375594  0.45986409  0.33069182    -0.02900
Br139      Br  0.20069426  0.43805881  0.29497067    -0.02600
H140        H  0.26616030  0.43197326  0.32022242     0.09600
H141        H  0.22798000  0.03011867  0.37297957     0.07600
Br142      Br  0.29636943  0.03546671  0.38659678    -0.03000
C143        C  0.49916552  0.00419655  0.09039620    -0.09600
C144        C  0.02778463  0.01637830  0.10423647     0.06500
C145        C  0.04333793  0.49406982  0.12434382    -0.03400
C146        C  0.03487799  0.46153343  0.12734983    -0.07900
C147        C  0.50303676  0.45016555  0.11965819     0.05700
C148        C  0.48127135  0.47196844  0.10418085    -0.02900
Br149      Br  0.43846619  0.46019707  0.09028654    -0.02600
H150        H  0.48146490  0.02064444  0.07958670     0.09600
H151        H  0.05294185  0.44524219  0.13758391     0.07600
Br152      Br  0.08552809  0.50665331  0.13949255    -0.03000
C153        C  0.01759415  0.21578616  0.18711206    -0.09600
C154        C  0.00276380  0.19790749  0.16133262     0.06500
C155        C  0.47750780  0.21235437  0.14115961    -0.03400
C156        C  0.46854133  0.24423354  0.14666903    -0.07900
C157        C  0.48437411  0.26276071  0.17131649     0.05700
C158        C  0.00840227  0.24766916  0.19279973    -0.02900
Br159      Br  0.02912570  0.26881058  0.23052298    -0.02600
H160        H  0.03612084  0.20480124  0.20320276     0.09600
H161        H  0.45033139  0.25511696  0.13010001     0.07600
Br162      Br  0.45563818  0.19042195  0.10482445    -0.03000
C163        C  0.07390256  0.07893158  0.24784600    -0.09600
C164        C  0.04896384  0.06479233  0.22889860     0.06500
C165        C  0.04289264  0.03145994  0.23457623    -0.03400
C166        C  0.06085482  0.01348794  0.25951843    -0.07900
C167        C  0.08571786  0.02792777  0.27862142     0.05700
C168        C  0.09229487  0.06111796  0.27190303    -0.02900
Br169      Br  0.12765571  0.08372656  0.29275937    -0.02600
H170        H  0.08014911  0.10402016  0.24274250     0.09600
H171        H  0.05520066  0.98822434  0.26409514     0.07600
Br172      Br  0.01251146  0.00877031  0.20675888    -0.03000
C173        C  0.48969134  0.31869128  0.99859478    -0.09600
C174        C  0.01071607  0.34031292  0.98130702     0.06500
C175        C  0.03347394  0.35775169  0.00099465    -0.03400
C176        C  0.03352232  0.35491399  0.03741062    -0.07900
C177        C  0.51116269  0.33465467  0.05489070     0.05700
C178        C  0.48996336  0.31560865  0.03503232    -0.02900
Br179      Br  0.46005775  0.28555904  0.05656562    -0.02600
H180        H  0.47282993  0.30451839  0.98389931     0.09600
H181        H  0.04925460  0.37039750  0.05200206     0.07600
Br182      Br  0.06291837  0.38873373  0.98011685    -0.03000
C183        C  0.12491894  0.42793056  0.48587993    -0.09600
C184        C  0.14560214  0.44914996  0.46753198     0.06500
C185        C  0.16960810  0.97004119  0.47978575    -0.03400
C186        C  0.16406014  0.47008242  0.52305029    -0.07900
C187        C  0.14161457  0.45060746  0.54110518     0.05700
C188        C  0.12283836  0.42841738  0.52226538    -0.02900
Br189      Br  0.09106077  0.40059314  0.54423028    -0.02600
H190        H  0.10806314  0.41316818  0.47180013     0.09600
H191        H  0.18101896  0.98719544  0.53066855     0.07600
Br192      Br  0.20209100  0.99698432  0.45782307    -0.03000
C193        C  0.06210686  0.39895742  0.72969371    -0.09600
C194        C  0.07499615  0.43045173  0.73219211     0.06500
C195        C  0.06458964  0.44873286  0.76029860    -0.03400
C196        C  0.04404963  0.43456111  0.78616822    -0.07900
C197        C  0.03293699  0.40239697  0.78435911     0.05700
C198        C  0.04150248  0.38512398  0.75508180    -0.02900
Br199      Br  0.02753540  0.34138510  0.75016516    -0.02600
H200        H  0.06861055  0.38442433  0.70792259     0.09600
H201        H  0.03861741  0.44799065  0.80909427     0.07600
Br202      Br  0.08042206  0.49152308  0.76660792    -0.03000
C203        C  0.02934402  0.11819742  0.97784502    -0.09600
C204        C  0.50383231  0.13531457  0.96215821     0.06500
C205        C  0.48149573  0.14978515  0.98470155    -0.03400
C206        C  0.48424984  0.14555354  0.02082228    -0.07900
C207        C  0.00880268  0.12721295  0.03632093     0.05700
C208        C  0.03189434  0.11370840  0.01390200    -0.02900
Br209      Br  0.06516048  0.08518477  0.03030005    -0.02600
H210        H  0.04596054  0.10590494  0.96116491     0.09600
H211        H  0.46673956  0.15639233  0.03759117     0.07600
Br212      Br  0.44597345  0.17487983  0.96779659    -0.03000
C213        C  0.49551962  0.46336277  0.92790631    -0.09600
C214        C  0.02305593  0.45141844  0.91094556     0.06500
C215        C  0.04558881  0.47339833  0.89677745    -0.03400
C216        C  0.03147258  0.00947987  0.88450309    -0.07900
C217        C  0.50146189  0.01995601  0.89711862     0.05700
C218        C  0.48758151  0.49598052  0.92566418    -0.02900
Br219      Br  0.44835189  0.50901228  0.94736980    -0.02600
H220        H  0.47842612  0.44665948  0.94018121     0.09600
H221        H  0.04698811  0.02595044  0.86966586     0.07600
Br222      Br  0.08465420  0.46037342  0.87459093    -0.03000
C223        C  0.96411736  0.25790594  0.86799721    -0.09600
C224        C  0.99325574  0.27003149  0.85340635     0.06500
C225        C  0.51145220  0.25007890  0.83205815    -0.03400
C226        C  0.50118060  0.21829741  0.82748675    -0.07900
C227        C  0.47350632  0.20502235  0.84454206     0.05700
C228        C  0.95427307  0.22574444  0.86443880    -0.02900
Br229      Br  0.91523086  0.21217248  0.88763088    -0.02600
H230        H  0.94933417  0.27331913  0.88354633     0.09600
H231        H  0.51630536  0.20330622  0.81185577     0.07600
Br232      Br  0.55039472  0.26444007  0.80920024    -0.03000
C233        C  0.34606495  0.49216520  0.53629870    -0.09600
C234        C  0.34834088  0.46439753  0.55847565     0.06500
C235        C  0.34586370  0.43423100  0.54316766    -0.03400
C236        C  0.34458829  0.43263452  0.50661157    -0.07900
C237        C  0.34641104  0.46068002  0.48451666     0.05700
C238        C  0.34627625  0.49073975  0.50018963    -0.02900
Br239      Br  0.30390480  0.00633638  0.47257677    -0.02600
H240        H  0.31161277  0.99176770  0.54657317     0.09600
H241        H  0.34392942  0.40904684  0.49550007     0.07600
Br242      Br  0.34545883  0.39471158  0.57025075    -0.03000
C243        C  0.98006901  0.97698208  0.59272431    -0.09600
C244        C  0.46806992  0.46308093  0.63371867     0.06500
C245        C  0.48313228  0.44188676  0.65817692    -0.03400
C246        C  0.51325443  0.42906396  0.65101609    -0.07900
C247        C  0.02984355  0.43878112  0.62113084     0.05700
C248        C  0.01444559  0.45879801  0.59591060    -0.02900
Br249      Br  0.03328186  0.98567476  0.54547327    -0.02600
H250        H  0.96858680  0.99449138  0.57550427     0.09600
H251        H  0.52521997  0.41491941  0.67117423     0.07600
Br252      Br  0.46608340  0.43286685  0.70411080    -0.03000
C253        C  0.22890207  0.49585573  0.64152167    -0.09600
C254        C  0.21523222  0.47329673  0.66557087     0.06500
C255        C  0.23415313  0.46254153  0.69375954    -0.03400
C256        C  0.26380391  0.96286873  0.68475650    -0.07900
C257        C  0.28105327  0.49376434  0.67102673     0.05700
C258        C  0.26137643  0.50582690  0.64370025    -0.02900
Br259      Br  0.27790264  0.53327539  0.60657346    -0.02600
H260        H  0.21445673  0.50489943  0.61993045     0.09600
H261        H  0.27936198  0.94769394  0.70067542     0.07600
Br262      Br  0.21660546  0.91644319  0.70879867    -0.03000
C263        C  0.44977657  0.07439543  0.74728664    -0.09600
C264        C  0.44549123  0.06488852  0.78215992     0.06500
C265        C  0.42667879  0.03686247  0.79002726    -0.03400
C266        C  0.41151634  0.01990685  0.76349055    -0.07900
C267        C  0.41418001  0.03045324  0.72866452     0.05700
C268        C  0.43441002  0.05768418  0.72069298    -0.02900
Br269      Br  0.44323283  0.07338983  0.67400015    -0.02600
H270        H  0.46429535  0.09551758  0.74072518     0.09600
H271        H  0.39684813  0.99894675  0.77026242     0.07600
Br272      Br  0.42111773  0.02001702  0.83672549    -0.03000
O273        O  0.42440156  0.50221615  0.63325581    -0.74900
O274        O  0.33354635  0.51850788  0.65437153    -0.75700
O275        O  0.39248863  0.52830882  0.68682728    -0.75000
O276        O  0.36739802  0.49849260  0.60045878    -0.75100
O277        O  0.35608658  0.94544548  0.61723988    -0.75000
O278        O  0.39307600  0.47874309  0.71005675    -0.75000
O279        O  0.32892574  0.96939894  0.67522502    -0.74900
O280        O  0.41364641  0.95503791  0.64624736    -0.75000
Ni281      Ni  0.37953649  0.51373467  0.64321089     1.25400
Ni282      Ni  0.37170662  0.96173190  0.66143174     1.25400
C283        C  0.43459973  0.47335552  0.63975956     0.87300
C284        C  0.31724688  0.49527712  0.66944341     0.87200
C285        C  0.40109158  0.50896679  0.71114447     0.87200
C286        C  0.35392750  0.96448176  0.59014851     0.87400
O287        O  0.47059919  0.56292792  0.89920817    -0.74900
O288        O  0.45963528  0.65210404  0.86502482    -0.74900
O289        O  0.44867839  0.59046599  0.83922242    -0.75000
O290        O  0.47519740  0.62229005  0.92516130    -0.75100
O291        O  0.52638540  0.62596267  0.90793923    -0.75000
O292        O  0.49920308  0.58801077  0.82016213    -0.75000
O293        O  0.50927821  0.65001513  0.84378147    -0.74900
O294        O  0.52161707  0.56737986  0.88204470    -0.75000
Ni295      Ni  0.46154006  0.60704896  0.88242590     1.25400
Ni296      Ni  0.51581258  0.60819483  0.86246836     1.25400
C297        C  0.49912303  0.55096943  0.89637832     0.87300
C298        C  0.48465388  0.66640291  0.85119512     0.87200
C299        C  0.46897074  0.58043555  0.81732629     0.87200
C300        C  0.50441338  0.62880550  0.93160449     0.87400
O301        O  0.07856768  0.91933332  0.61903034    -0.74900
O302        O  0.16691582  0.93331664  0.65002523    -0.74900
O303        O  0.10785800  0.92052113  0.68092193    -0.75000
O304        O  0.13698475  0.92694205  0.58811201    -0.75100
O305        O  0.13167885  0.98022967  0.58649485    -0.75000
O306        O  0.09393782  0.97194783  0.68040204    -0.75000
O307        O  0.15570923  0.98542317  0.65241932    -0.74900
O308        O  0.07327947  0.97261253  0.61450039    -0.75000
Ni309      Ni  0.12316637  0.92318813  0.63469165     1.25400
Ni310      Ni  0.11381378  0.97958678  0.63378436     1.25400
C311        C  0.06157458  0.94455899  0.61193649     0.87300
C312        C  0.17591214  0.96261261  0.65506856     0.87200
C313        C  0.09196139  0.94311357  0.69419771     0.87200
C314        C  0.13756157  0.95366302  0.57121206     0.87400
O315        O  0.04781306  0.90485954  0.89128822    -0.74900
O316        O  0.03920040  0.81580288  0.86360290    -0.74900
O317        O  0.04941798  0.87515353  0.83003785    -0.75000
O318        O  0.04201038  0.84711366  0.92476895    -0.75100
O319        O  0.48862477  0.85115063  0.92190965    -0.75000
O320        O  0.99649515  0.88290305  0.82623319    -0.75000
O321        O  0.98638651  0.82308510  0.85931891    -0.74900
O322        O  0.99426956  0.90795652  0.88945889    -0.75000
Ni323      Ni  0.04651242  0.86027263  0.87731705     1.25400
Ni324      Ni  0.98953241  0.86607504  0.87416018     1.25400
C325        C  0.02157854  0.92072816  0.89513390     0.87300
C326        C  0.01060112  0.80455864  0.85795410     0.87200
C327        C  0.02520303  0.88621140  0.81337200     0.87200
C328        C  0.01486843  0.84644301  0.94031163     0.87400
O329        O  0.04748201  0.56691679  0.12679582    -0.74900
O330        O  0.03893625  0.65526726  0.15684621    -0.74900
O331        O  0.05125087  0.59596706  0.18857998    -0.75000
O332        O  0.04006684  0.62533905  0.09555467    -0.75100
O333        O  0.98684695  0.61894479  0.09925969    -0.75000
O334        O  0.99885174  0.58545136  0.19505202    -0.75000
O335        O  0.98633733  0.64576941  0.16349060    -0.74900
O336        O  0.99418874  0.56190460  0.13144856    -0.75000
Ni337      Ni  0.04631196  0.61132709  0.14203333     1.25400
Ni338      Ni  0.98962198  0.60314832  0.14785130     1.25400
C339        C  0.02128098  0.55022536  0.12372633     0.87300
C340        C  0.01018940  0.66527794  0.16305240     0.87200
C341        C  0.02818170  0.58315946  0.20621119     0.87200
C342        C  0.01261495  0.62497504  0.08108217     0.87400
O343        O  0.07153555  0.49735583  0.40354280    -0.74900
O344        O  0.16018867  0.51127796  0.36972386    -0.74900
O345        O  0.09847767  0.52570968  0.34507038    -0.75000
O346        O  0.13160496  0.48936336  0.42790120    -0.75100
O347        O  0.13723298  0.94191707  0.39863993    -0.75000
O348        O  0.09614963  0.47875459  0.31943860    -0.75000
O349        O  0.16501032  0.96580807  0.33936627    -0.74900
O350        O  0.07996502  0.95135051  0.36789432    -0.75000
Ni351      Ni  0.11544561  0.50785278  0.38694334     1.25400
Ni352      Ni  0.12220204  0.95810054  0.35304124     1.25400
C353        C  0.05833156  0.46975343  0.39747946     0.87300
C354        C  0.17371526  0.48752404  0.35448971     0.87200
C355        C  0.09059851  0.50938505  0.31897629     0.87200
C356        C  0.14071553  0.96111449  0.42415577     0.87400
O357        O  0.41403567  0.91804601  0.39752473    -0.74900
O358        O  0.32578376  0.93492617  0.36843996    -0.74900
O359        O  0.38275824  0.91878855  0.33674323    -0.75000
O360        O  0.35732171  0.92915477  0.42973019    -0.75100
O361        O  0.36460203  0.98229116  0.42501079    -0.75000
O362        O  0.40011711  0.96927498  0.33148007    -0.75000
O363        O  0.33991029  0.98622628  0.35917965    -0.74900
O364        O  0.42218898  0.97116929  0.39679758    -0.75000
Ni365      Ni  0.36929375  0.92339674  0.38317706     1.25400
Ni366      Ni  0.38173959  0.97926176  0.37760819     1.25400
C367        C  0.43248009  0.94280408  0.40159016     0.87300
C368        C  0.31830668  0.96428478  0.36027252     0.87200
C369        C  0.39949351  0.94017943  0.32030082     0.87200
C370        C  0.35745317  0.95656358  0.44334418     0.87400
O371        O  0.47419548  0.90546914  0.12361468    -0.74900
O372        O  0.46276614  0.81635950  0.15699995    -0.74900
O373        O  0.45324529  0.87648641  0.18434313    -0.75000
O374        O  0.47840592  0.84684697  0.09656374    -0.75100
O375        O  0.02939058  0.84593707  0.11357346    -0.75000
O376        O  0.50382822  0.87738587  0.20338635    -0.75000
O377        O  0.51353375  0.81764350  0.17516103    -0.74900
O378        O  0.52487253  0.90266732  0.14175319    -0.75000
Ni379      Ni  0.46522121  0.86128968  0.14011990     1.25400
Ni380      Ni  0.51977014  0.86061657  0.15905165     1.25400
C381        C  0.50263631  0.91806039  0.12624827     0.87300
C382        C  0.48774358  0.80188304  0.16974527     0.87200
C383        C  0.47353698  0.88316335  0.20791756     0.87200
C384        C  0.50776756  0.84223226  0.08905451     0.87400
C385        C  0.41500207  0.89559902  0.28157844    -0.09600
C386        C  0.41964308  0.92812855  0.29034147     0.06500
C387        C  0.44577192  0.94490299  0.27380604    -0.03400
C388        C  0.46511337  0.92955965  0.24866639    -0.07900
C389        C  0.45972691  0.89711670  0.24019281     0.05700
C390        C  0.43464310  0.88030778  0.25766028    -0.02900
Br391      Br  0.42613607  0.83562977  0.24971422    -0.02600
H392        H  0.39600949  0.88123042  0.29380341     0.09600
H393        H  0.48377342  0.94326764  0.23504843     0.07600
Br394      Br  0.45647297  0.98840654  0.28449317    -0.03000
C395        C  0.50568367  0.48028895  0.42638875    -0.09600
C396        C  0.02977941  0.96343712  0.39005932     0.06500
C397        C  0.01317463  0.94296825  0.36710217    -0.03400
C398        C  0.98280788  0.93064858  0.37581896    -0.07900
C399        C  0.46742943  0.94073338  0.40545196     0.05700
C400        C  0.48361267  0.96116619  0.42853367    -0.02900
Br401      Br  0.44696834  0.50324769  0.45511801    -0.02600
H402        H  0.51481465  0.50361616  0.43365391     0.09600
H403        H  0.96973432  0.91706103  0.35665298     0.07600
Br404      Br  0.02841974  0.93402433  0.32106633    -0.03000
C405        C  0.26428536  0.95298973  0.33515259    -0.09600
C406        C  0.28426805  0.97368718  0.35330761     0.06500
C407        C  0.27106864  0.00291590  0.36487333    -0.03400
C408        C  0.22977842  0.50024130  0.37412594    -0.07900
C409        C  0.21738563  0.98718061  0.34504293     0.05700
C410        C  0.23170035  0.95990015  0.32972984    -0.02900
Br411      Br  0.20923365  0.93037329  0.30052989    -0.02600
H412        H  0.27421716  0.93133588  0.32467306     0.09600
H413        H  0.21989619  0.51863661  0.39026018     0.07600
Br414      Br  0.28576873  0.51318304  0.41375495    -0.03000
C415        C  0.49016780  0.50440032  0.10027852    -0.09600
C416        C  0.02006533  0.51630271  0.11346715     0.06500
C417        C  0.05108054  0.99458765  0.11601262    -0.03400
C418        C  0.04262807  0.96217247  0.12025367    -0.07900
C419        C  0.51168164  0.95085897  0.11281983     0.05700
C420        C  0.49038044  0.97183061  0.09531925    -0.02900
Br421      Br  0.44842670  0.95894766  0.07972915    -0.02600
H422        H  0.47230241  0.52119225  0.09050661     0.09600
H423        H  0.06053798  0.94626875  0.13152241     0.07600
Br424      Br  0.09288595  0.00793862  0.13154410    -0.03000
C425        C  0.02055946  0.71825399  0.19093065    -0.09600
C426        C  0.00298138  0.69993080  0.16756134     0.06500
C427        C  0.47723903  0.71439203  0.14858331    -0.03400
C428        C  0.47062818  0.74708362  0.15249564    -0.07900
C429        C  0.48931519  0.76605878  0.17434155     0.05700
C430        C  0.01370369  0.75096306  0.19520503    -0.02900
Br431      Br  0.03933726  0.77295140  0.22873726    -0.02600
H432        H  0.03969563  0.70708711  0.20598428     0.09600
H433        H  0.45215970  0.75817291  0.13640805     0.07600
Br434      Br  0.45246702  0.69243820  0.11433919    -0.03000
C435        C  0.06142442  0.57898754  0.25944879    -0.09600
C436        C  0.03796184  0.56468356  0.23864480     0.06500
C437        C  0.03224080  0.53119307  0.24384242    -0.03400
C438        C  0.04991947  0.51308064  0.26915242    -0.07900
C439        C  0.07397857  0.52756384  0.28950565     0.05700
C440        C  0.07931890  0.56122017  0.28408448    -0.02900
Br441      Br  0.11258372  0.58498280  0.30720036    -0.02600
H442        H  0.06721469  0.60430026  0.25513904     0.09600
H443        H  0.04477633  0.48760158  0.27289626     0.07600
Br444      Br  0.00234165  0.50871102  0.21524354    -0.03000
C445        C  0.49273372  0.82216113  0.99494270    -0.09600
C446        C  0.01513014  0.84223833  0.97901261     0.06500
C447        C  0.03827615  0.85852163  0.99938381    -0.03400
C448        C  0.03775771  0.85525999  0.03584792    -0.07900
C449        C  0.51462745  0.83621379  0.05181771     0.05700
C450        C  0.49234677  0.81886205  0.03144680    -0.02900
Br451      Br  0.46024018  0.79064756  0.05219741    -0.02600
H452        H  0.47516185  0.80914545  0.97995266     0.09600
H453        H  0.05417783  0.86970596  0.05080934     0.07600
Br454      Br  0.06881898  0.88902687  0.97955524    -0.03000
C455        C  0.12761293  0.92936912  0.47741704    -0.09600
C456        C  0.14892280  0.95051414  0.45997034     0.06500
C457        C  0.16651955  0.46911951  0.48672273    -0.03400
C458        C  0.16588914  0.97118346  0.51600560    -0.07900
C459        C  0.14248656  0.95206672  0.53314411     0.05700
C460        C  0.12434502  0.92984382  0.51362619    -0.02900
Br461      Br  0.09182271  0.90191692  0.53413271    -0.02600
H462        H  0.11116649  0.91472084  0.46266712     0.09600
H463        H  0.17942957  0.48633326  0.53713585     0.07600
Br464      Br  0.19741226  0.49744870  0.46414768    -0.03000
C465        C  0.05697570  0.90060366  0.72234306    -0.09600
C466        C  0.06901753  0.93257680  0.72313783     0.06500
C467        C  0.05946328  0.95116611  0.75140472    -0.03400
C468        C  0.04170224  0.93657276  0.77943772    -0.07900
C469        C  0.03236468  0.90373423  0.77959378     0.05700
C470        C  0.03918499  0.88633478  0.74990270    -0.02900
Br471      Br  0.02674945  0.84195217  0.74711171    -0.02600
H472        H  0.06240023  0.88585968  0.70040221     0.09600
H473        H  0.03678182  0.95046766  0.80214509     0.07600
Br474      Br  0.07202369  0.99541970  0.75435171    -0.03000
C475        C  0.03636047  0.61960253  0.98553180    -0.09600
C476        C  0.51134503  0.63604752  0.96839194     0.06500
C477        C  0.48789545  0.65127521  0.98907281    -0.03400
C478        C  0.48833506  0.64759178  0.02551667    -0.07900
C479        C  0.01237106  0.62956363  0.04252839     0.05700
C480        C  0.03688385  0.61590460  0.02186060    -0.02900
Br481      Br  0.06967569  0.58811212  0.04082724    -0.02600
H482        H  0.05387730  0.60691903  0.97031511     0.09600
H483        H  0.46988227  0.65886463  0.04077360     0.07600
Br484      Br  0.45384398  0.67657639  0.96879531    -0.03000
C485        C  0.49279607  0.96580835  0.92029904    -0.09600
C486        C  0.02073606  0.95485258  0.90395469     0.06500
C487        C  0.04108624  0.97753965  0.88723311    -0.03400
C488        C  0.03804814  0.50595786  0.89523816    -0.07900
C489        C  0.50792019  0.51747442  0.90689603     0.05700
C490        C  0.48292406  0.99783918  0.91727118    -0.02900
Br491      Br  0.44357574  0.00908022  0.93996559    -0.02600
H492        H  0.47713627  0.94853335  0.93387286     0.09600
H493        H  0.05518716  0.52199697  0.88209909     0.07600
Br494      Br  0.07990164  0.96606980  0.86348201    -0.03000
C495        C  0.97214199  0.75747909  0.85768998    -0.09600
C496        C  0.00380761  0.76959085  0.85180704     0.06500
C497        C  0.52762333  0.74779515  0.84120938    -0.03400
C498        C  0.51981156  0.71496451  0.83911040    -0.07900
C499        C  0.48856217  0.70245338  0.84693821     0.05700
C500        C  0.96435955  0.72454421  0.85571469    -0.02900
Br501      Br  0.92054248  0.71179347  0.86496334    -0.02600
H502        H  0.95316899  0.77362823  0.86505860     0.09600
H503        H  0.53913988  0.69892641  0.83253815     0.07600
Br504      Br  0.57121710  0.76062425  0.83046762    -0.03000
C505        C  0.32710372  0.97467696  0.53417207    -0.09600
C506        C  0.34637565  0.95393660  0.55485546     0.06500
C507        C  0.36641931  0.93211969  0.53827961    -0.03400
C508        C  0.36891707  0.93330349  0.50193657    -0.07900
C509        C  0.35212121  0.95634468  0.48146047     0.05700
C510        C  0.33011548  0.97631655  0.49789221    -0.02900
Br511      Br  0.34909566  0.53136598  0.47501436    -0.02600
H512        H  0.34629509  0.51595112  0.54694729     0.09600
H513        H  0.38544184  0.91711488  0.48965942     0.07600
Br514      Br  0.39406508  0.90337099  0.56399859    -0.03000
C515        C  0.98356777  0.47083434  0.60223294    -0.09600
C516        C  0.46405820  0.96685957  0.62248756     0.06500
C517        C  0.47948597  0.94342831  0.64429452    -0.03400
C518        C  0.50964748  0.93179245  0.63558062    -0.07900
C519        C  0.02656516  0.94338279  0.60719043     0.05700
C520        C  0.01125074  0.96635909  0.58499330    -0.02900
Br521      Br  0.03604924  0.47244327  0.55372314    -0.02600
H522        H  0.97203109  0.48607379  0.58267479     0.09600
H523        H  0.52162419  0.91559109  0.65389559     0.07600
Br524      Br  0.46368544  0.92941184  0.68952843    -0.03000
C525        C  0.22244327  0.00014524  0.64433417    -0.09600
C526        C  0.21029242  0.97180786  0.66104658     0.06500
C527        C  0.23126583  0.95361842  0.68221882    -0.03400
C528        C  0.26645592  0.47281932  0.69636668    -0.07900
C529        C  0.27675906  0.98997522  0.66596036     0.05700
C530        C  0.25510098  0.00924495  0.64638054    -0.02900
Br531      Br  0.26828963  0.04731060  0.62035659    -0.02600
H532        H  0.20656389  0.01485331  0.62825255     0.09600
H533        H  0.28074939  0.46311810  0.71773792     0.07600
Br534      Br  0.21667440  0.43429647  0.72955590    -0.03000
C535        C  0.46223651  0.56450630  0.75498291    -0.09600
C536        C  0.45603341  0.55842135  0.79031024     0.06500
C537        C  0.43428704  0.53278321  0.79956381    -0.03400
C538        C  0.41789585  0.51545501  0.77393431    -0.07900
C539        C  0.42226601  0.52320987  0.73855025     0.05700
C540        C  0.44570915  0.54744447  0.72934849    -0.02900
Br541      Br  0.45672731  0.55890534  0.68192801    -0.02600
H542        H  0.47893436  0.58358550  0.74717419     0.09600
H543        H  0.40068221  0.49686269  0.78178852     0.07600
Br544      Br  0.42582293  0.52001185  0.84711146    -0.03000
O545        O  0.91875962  0.00311952  0.62202996    -0.74900
O546        O  0.82816134  0.01631994  0.64641692    -0.75700
O547        O  0.88756029  0.03131243  0.67504680    -0.75000
O548        O  0.86055566  0.99347385  0.59268977    -0.75100
O549        O  0.85756457  0.44980302  0.62081938    -0.75000
O550        O  0.88934605  0.98381885  0.70306289    -0.75000
O551        O  0.83150857  0.47115011  0.68101324    -0.74900
O552        O  0.91569268  0.45245617  0.65257179    -0.75000
Ni553      Ni  0.87372805  0.01294047  0.63334185     1.25400
Ni554      Ni  0.87393716  0.46139065  0.66724637     1.25400
C555        C  0.93084835  0.97556628  0.63111968     0.87300
C556        C  0.81329252  0.99329406  0.66345825     0.87200
C557        C  0.89590646  0.01431740  0.70148547     0.87200
C558        C  0.85772779  0.47103480  0.59536005     0.87400
O559        O  0.96244015  0.06372802  0.89282802    -0.74900
O560        O  0.94706381  0.15315781  0.86294388    -0.74900
O561        O  0.93805818  0.09264601  0.83469009    -0.75000
O562        O  0.96590333  0.12207562  0.92119921    -0.75100
O563        O  0.01643972  0.12783741  0.90214979    -0.75000
O564        O  0.98813147  0.09364715  0.81368200    -0.75000
O565        O  0.99634823  0.15385610  0.84034773    -0.74900
O566        O  0.01263100  0.07043416  0.87353237    -0.75000
Ni567      Ni  0.95135719  0.10788150  0.87830151     1.25400
Ni568      Ni  0.00501832  0.11184680  0.85643985     1.25400
C569        C  0.99120030  0.05289400  0.88831014     0.87300
C570        C  0.97111481  0.16878203  0.84884567     0.87200
C571        C  0.95817526  0.08526588  0.81129279     0.87200
C572        C  0.99519560  0.12915346  0.92669205     0.87400
O573        O  0.58335549  0.41633274  0.63152348    -0.74900
O574        O  0.67266196  0.43447135  0.65718605    -0.74900
O575        O  0.61548185  0.41994078  0.69151476    -0.75000
O576        O  0.63982431  0.42594202  0.59687044    -0.75100
O577        O  0.63270768  0.47901380  0.59489194    -0.75000
O578        O  0.59957354  0.47081039  0.69044469    -0.75000
O579        O  0.65981987  0.48625904  0.65911914    -0.74900
O580        O  0.57604418  0.46933278  0.62624641    -0.75000
Ni581      Ni  0.62856366  0.42234498  0.64442941     1.25400
Ni582      Ni  0.61718162  0.47838919  0.64298828     1.25400
C583        C  0.56520280  0.44081207  0.62489234     0.87300
C584        C  0.68084880  0.46416262  0.66130693     0.87200
C585        C  0.59869490  0.44207055  0.70448431     0.87200
C586        C  0.63861660  0.45247886  0.57961038     0.87400
O587        O  0.54698899  0.40042768  0.89577787    -0.74900
O588        O  0.53220326  0.31293668  0.86535101    -0.74900
O589        O  0.54693805  0.37181206  0.83377379    -0.75000
O590        O  0.53730185  0.34243721  0.92721760    -0.75100
O591        O  0.98422024  0.35073133  0.92573538    -0.75000
O592        O  0.49479164  0.38360641  0.82966409    -0.75000
O593        O  0.47997476  0.32424058  0.86153507    -0.74900
O594        O  0.49388317  0.40745116  0.89343867    -0.75000
Ni595      Ni  0.54272413  0.35632513  0.88039933     1.25400
Ni596      Ni  0.48631034  0.36645499  0.87717938     1.25400
C597        C  0.52189306  0.41795808  0.90013269     0.87300
C598        C  0.50277609  0.30414455  0.85965432     0.87200
C599        C  0.52378223  0.38495714  0.81722643     0.87200
C600        C  0.51030939  0.34387375  0.94273223     0.87400
O601        O  0.55350678  0.06810651  0.11651589    -0.74900
O602        O  0.54082844  0.15577167  0.14688081    -0.74900
O603        O  0.55848941  0.09771525  0.17789378    -0.75000
O604        O  0.54045628  0.12532797  0.08572704    -0.75100
O605        O  0.48794390  0.11561639  0.09327872    -0.75000
O606        O  0.50712708  0.08420023  0.18771458    -0.75000
O607        O  0.48925369  0.14309203  0.15686825    -0.74900
O608        O  0.50091835  0.05964813  0.12484632    -0.75000
Ni609      Ni  0.55019723  0.11233559  0.13173320     1.25400
Ni610      Ni  0.49442579  0.10062534  0.14135056     1.25400
C611        C  0.52821519  0.04989442  0.11496201     0.87300
C612        C  0.51190535  0.16396789  0.15504169     0.87200
C613        C  0.53706151  0.08369653  0.19689396     0.87200
C614        C  0.51220285  0.12301122  0.07339372     0.87400
O615        O  0.57654988  0.00126935  0.38987885    -0.74900
O616        O  0.66742625  0.01540205  0.36434226    -0.74900
O617        O  0.60809706  0.02889280  0.33461606    -0.75000
O618        O  0.63491709  0.99296074  0.42036602    -0.75100
O619        O  0.63119792  0.44026734  0.40666672    -0.75000
O620        O  0.60642545  0.98117922  0.31030695    -0.75000
O621        O  0.65703718  0.46368555  0.34572888    -0.74900
O622        O  0.57274970  0.44974118  0.37812949    -0.75000
Ni623      Ni  0.62172611  0.01150448  0.37792817     1.25400
Ni624      Ni  0.61445391  0.45644172  0.36134190     1.25400
C625        C  0.56398718  0.97371801  0.38251871     0.87300
C626        C  0.68173158  0.99218821  0.34906301     0.87200
C627        C  0.60130523  0.01182969  0.30875386     0.87200
C628        C  0.63638165  0.45960888  0.43186619     0.87400
O629        O  0.90861027  0.41852200  0.40536930    -0.74900
O630        O  0.81960816  0.42864796  0.37332729    -0.74900
O631        O  0.87842627  0.41286633  0.34330216    -0.75000
O632        O  0.85094270  0.42952033  0.43495454    -0.75100
O633        O  0.85905371  0.48191874  0.42540574    -0.75000
O634        O  0.89011305  0.46442265  0.33198078    -0.75000
O635        O  0.83079023  0.48035010  0.36166348    -0.74900
O636        O  0.91543219  0.47115758  0.39516659    -0.75000
Ni637      Ni  0.86388402  0.42045686  0.38921770     1.25400
Ni638      Ni  0.87382306  0.47628427  0.37783522     1.25400
C639        C  0.92606235  0.44437364  0.40655318     0.87300
C640        C  0.81033594  0.45737979  0.36457865     0.87200
C641        C  0.89165921  0.43460464  0.32369988     0.87200
C642        C  0.85181557  0.45792489  0.44622709     0.87400
O643        O  0.96663822  0.40361159  0.12721527    -0.74900
O644        O  0.95672736  0.31287037  0.15557046    -0.74900
O645        O  0.94428417  0.37135889  0.18535328    -0.75000
O646        O  0.97363802  0.34626557  0.09768782    -0.75100
O647        O  0.52443966  0.34484190  0.11564710    -0.75000
O648        O  0.99403280  0.37335319  0.20661065    -0.75000
O649        O  0.00646811  0.31494878  0.17672231    -0.74900
O650        O  0.01680473  0.40121165  0.14696441    -0.75000
Ni651      Ni  0.95840768  0.35852282  0.14109959     1.25400
Ni652      Ni  0.01217237  0.35847570  0.16247799     1.25400
C653        C  0.99460857  0.41679578  0.13158332     0.87300
C654        C  0.98157547  0.29866449  0.16898628     0.87200
C655        C  0.96338454  0.37781763  0.21007654     0.87200
C656        C  0.00325252  0.34163186  0.09162633     0.87400
C657        C  0.90015631  0.39362506  0.27888345    -0.09600
C658        C  0.91005439  0.42305041  0.29269331     0.06500
C659        C  0.93998445  0.43629747  0.28093514    -0.03400
C660        C  0.95843619  0.42056274  0.25552410    -0.07900
C661        C  0.94805301  0.39116129  0.24183955     0.05700
C662        C  0.91867438  0.37774864  0.25438268    -0.02900
Br663      Br  0.90298668  0.33663013  0.23996381    -0.02600
H664        H  0.87795768  0.38221377  0.28792416     0.09600
H665        H  0.98059692  0.43167722  0.24596960     0.07600
Br666      Br  0.95783712  0.47458258  0.30002246    -0.03000
C667        C  0.01496443  0.97109415  0.42146358    -0.09600
C668        C  0.52589980  0.45862432  0.41012842     0.06500
C669        C  0.51357268  0.42701080  0.40413025    -0.03400
C670        C  0.48055287  0.42053722  0.40723563    -0.07900
C671        C  0.95980486  0.44503747  0.41856557     0.05700
C672        C  0.97301668  0.47386151  0.43146946    -0.02900
Br673      Br  0.96295391  0.97438254  0.47047683    -0.02600
H674        H  0.02752762  0.98605948  0.43972611     0.09600
H675        H  0.47092498  0.39790107  0.39840400     0.07600
Br676      Br  0.53927325  0.39109952  0.39069803    -0.03000
C677        C  0.75630452  0.45150007  0.33530191    -0.09600
C678        C  0.77559886  0.46595266  0.36027060     0.06500
C679        C  0.76200496  0.49091420  0.37966348    -0.03400
C680        C  0.73799115  0.01114615  0.36274953    -0.07900
C681        C  0.70976890  0.48460939  0.35120035     0.05700
C682        C  0.72398789  0.46072533  0.33032592    -0.02900
Br683      Br  0.70105263  0.43980754  0.29389618    -0.02600
H684        H  0.76649475  0.43317611  0.31927128     0.09600
H685        H  0.72802247  0.03209433  0.37468163     0.07600
Br686      Br  0.79640733  0.03670968  0.38931964    -0.03000
C687        C  0.99845770  0.00428012  0.09106913    -0.09600
C688        C  0.52839085  0.01636918  0.10372443     0.06500
C689        C  0.54328038  0.49374195  0.12351253    -0.03400
C690        C  0.53479278  0.46121816  0.12651677    -0.07900
C691        C  0.00319780  0.45040839  0.12023667     0.05700
C692        C  0.98148555  0.47218394  0.10461567    -0.02900
Br693      Br  0.93887952  0.46027011  0.09018775    -0.02600
H694        H  0.98074360  0.02077426  0.08037242     0.09600
H695        H  0.55288589  0.44488957  0.13661420     0.07600
Br696      Br  0.58553032  0.50627115  0.13852674    -0.03000
C697        C  0.51772442  0.21578119  0.18633345    -0.09600
C698        C  0.50295289  0.19801953  0.16041825     0.06500
C699        C  0.97739735  0.21223434  0.14193393    -0.03400
C700        C  0.96856797  0.24420252  0.14717777    -0.07900
C701        C  0.98445329  0.26282605  0.17170156     0.05700
C702        C  0.50840346  0.24757747  0.19227807    -0.02900
Br703      Br  0.52905819  0.26856427  0.23014849    -0.02600
H704        H  0.53629481  0.20476408  0.20233923     0.09600
H705        H  0.95042525  0.25506234  0.13050264     0.07600
Br706      Br  0.95546741  0.19016925  0.10573814    -0.03000
C707        C  0.57418950  0.07977025  0.24702436    -0.09600
C708        C  0.54918138  0.06551752  0.22827278     0.06500
C709        C  0.54293193  0.03227510  0.23440764    -0.03400
C710        C  0.56086866  0.01448526  0.25952139    -0.07900
C711        C  0.58584357  0.02903151  0.27836565     0.05700
C712        C  0.59252255  0.06213608  0.27127997    -0.02900
Br713      Br  0.62792626  0.08482314  0.29195328    -0.02600
H714        H  0.58052515  0.10479309  0.24162660     0.09600
H715        H  0.55509610  0.98929233  0.26445419     0.07600
Br716      Br  0.51230598  0.00944895  0.20702138    -0.03000
C717        C  0.98965154  0.31886689  0.99876956    -0.09600
C718        C  0.51085515  0.34007700  0.98119131     0.06500
C719        C  0.53366231  0.35739957  0.00093691    -0.03400
C720        C  0.53362925  0.35454902  0.03735208    -0.07900
C721        C  0.01117938  0.33492252  0.05501070     0.05700
C722        C  0.98999333  0.31581038  0.03520986    -0.02900
Br723      Br  0.96020992  0.28569089  0.05683622    -0.02600
H724        H  0.97282578  0.30461389  0.98411796     0.09600
H725        H  0.54939345  0.36996573  0.05198620     0.07600
Br726      Br  0.56327781  0.38826957  0.98015126    -0.03000
C727        C  0.62537085  0.42794400  0.48612439    -0.09600
C728        C  0.64567009  0.44948668  0.46769597     0.06500
C729        C  0.66958415  0.97258281  0.48004007    -0.03400
C730        C  0.66392536  0.47071773  0.52316784    -0.07900
C731        C  0.64186377  0.45088179  0.54130840     0.05700
C732        C  0.62337996  0.42840194  0.52253044    -0.02900
Br733      Br  0.59203991  0.40015120  0.54461057    -0.02600
H734        H  0.60871872  0.41291169  0.47210400     0.09600
H735        H  0.68073775  0.98969304  0.53099580     0.07600
Br736      Br  0.70163088  0.00014305  0.45821695    -0.03000
C737        C  0.56215351  0.39952998  0.72979025    -0.09600
C738        C  0.57494747  0.43105668  0.73229132     0.06500
C739        C  0.56448940  0.44930323  0.76040630    -0.03400
C740        C  0.54398203  0.43506619  0.78627583    -0.07900
C741        C  0.53295810  0.40286993  0.78445162     0.05700
C742        C  0.54159035  0.38563231  0.75517265    -0.02900
Br743      Br  0.52781721  0.34183408  0.75026992    -0.02600
H744        H  0.56872581  0.38500986  0.70803272     0.09600
H745        H  0.53851017  0.44847175  0.80920822     0.07600
Br746      Br  0.58022813  0.49212623  0.76672890    -0.03000
C747        C  0.52949275  0.11811177  0.97671771    -0.09600
C748        C  0.00354990  0.13513609  0.96322297     0.06500
C749        C  0.98101440  0.14941476  0.98569696    -0.03400
C750        C  0.98374463  0.14526434  0.02182268    -0.07900
C751        C  0.50915707  0.12724365  0.03525756     0.05700
C752        C  0.53208841  0.11357840  0.01277656    -0.02900
Br753      Br  0.56518175  0.08483652  0.02912671    -0.02600
H754        H  0.54595896  0.10568291  0.95998923     0.09600
H755        H  0.96608932  0.15594355  0.03854297     0.07600
Br756      Br  0.94522466  0.17408797  0.96870699    -0.03000
C757        C  0.99546637  0.46319248  0.92782972    -0.09600
C758        C  0.52311107  0.45154191  0.91105591     0.06500
C759        C  0.54560321  0.47350272  0.89676658    -0.03400
C760        C  0.53149398  0.00978905  0.88389027    -0.07900
C761        C  0.00151578  0.01967413  0.89789919     0.05700
C762        C  0.98756320  0.49581415  0.92573005    -0.02900
Br763      Br  0.94829220  0.50876984  0.94740936    -0.02600
H764        H  0.97834768  0.44646074  0.94001654     0.09600
H765        H  0.54711143  0.02630061  0.86923602     0.07600
Br766      Br  0.58468578  0.46044723  0.87463706    -0.03000
C767        C  0.46419267  0.25807596  0.86749616    -0.09600
C768        C  0.49331813  0.27024933  0.85291867     0.06500
C769        C  0.01146144  0.24978573  0.83271426    -0.03400
C770        C  0.00122562  0.21798542  0.82828638    -0.07900
C771        C  0.97354535  0.20476221  0.84537170     0.05700
C772        C  0.45429359  0.22594850  0.86375791    -0.02900
Br773      Br  0.41523712  0.21234457  0.88690065    -0.02600
H774        H  0.44944959  0.27342654  0.88316123     0.09600
H775        H  0.01639337  0.20294261  0.81276164     0.07600
Br776      Br  0.05047368  0.26405145  0.80992396    -0.03000
C777        C  0.84667422  0.49324129  0.53605899    -0.09600
C778        C  0.84843383  0.46548491  0.55832787     0.06500
C779        C  0.84552239  0.43531509  0.54309864    -0.03400
C780        C  0.84427973  0.43364819  0.50655464    -0.07900
C781        C  0.84654255  0.46161116  0.48438392     0.05700
C782        C  0.84686440  0.49172076  0.49995728    -0.02900
Br783      Br  0.80144096  0.00312667  0.47439257    -0.02600
H784        H  0.81020793  0.98867604  0.54844548     0.09600
H785        H  0.84326501  0.41003885  0.49551597     0.07600
Br786      Br  0.84443119  0.39584663  0.57026583    -0.03000
C787        C  0.48007582  0.97819682  0.59227891    -0.09600
C788        C  0.96789548  0.46367687  0.63386164     0.06500
C789        C  0.98292888  0.44261927  0.65847081    -0.03400
C790        C  0.01299254  0.42962560  0.65136818    -0.07900
C791        C  0.53014216  0.43856228  0.62092247     0.05700
C792        C  0.51469695  0.45864325  0.59580049    -0.02900
Br793      Br  0.53359586  0.98703142  0.54542640    -0.02600
H794        H  0.46857266  0.99553083  0.57486865     0.09600
H795        H  0.02493838  0.41558257  0.67162094     0.07600
Br796      Br  0.96586905  0.43398225  0.70446983    -0.03000
C797        C  0.72877628  0.49691125  0.64183392    -0.09600
C798        C  0.71512371  0.47442064  0.66596581     0.06500
C799        C  0.73403915  0.46377605  0.69420492    -0.03400
C800        C  0.76395601  0.96364878  0.68526868    -0.07900
C801        C  0.78094668  0.49484691  0.67128322     0.05700
C802        C  0.76125774  0.50686374  0.64394865    -0.02900
Br803      Br  0.77780106  0.53415356  0.60669900    -0.02600
H804        H  0.71433011  0.50586994  0.62020374     0.09600
H805        H  0.77933960  0.94842038  0.70133323     0.07600
Br806      Br  0.71627884  0.91776525  0.70942832    -0.03000
C807        C  0.94975992  0.07495987  0.74806942    -0.09600
C808        C  0.94574613  0.06509155  0.78287023     0.06500
C809        C  0.92703640  0.03698478  0.79059628    -0.03400
C810        C  0.91183888  0.02018617  0.76399056    -0.07900
C811        C  0.91431645  0.03098784  0.72923088     0.05700
C812        C  0.93431572  0.05842875  0.72139498    -0.02900
Br813      Br  0.94273841  0.07472783  0.67483373    -0.02600
H814        H  0.96412038  0.09622268  0.74164519     0.09600
H815        H  0.89731798  0.99910081  0.77066689     0.07600
Br816      Br  0.92162108  0.01984289  0.83719993    -0.03000
O817        O  0.92428691  0.50288776  0.63335847    -0.74900
O818        O  0.83349887  0.51941827  0.65459713    -0.75700
O819        O  0.89248073  0.52886081  0.68705967    -0.75000
O820        O  0.86724314  0.49949062  0.60054758    -0.75100
O821        O  0.85657579  0.94486385  0.61862996    -0.75000
O822        O  0.89280037  0.47921130  0.71009879    -0.75000
O823        O  0.82917898  0.96966107  0.67603629    -0.74900
O824        O  0.91402237  0.95469341  0.64779772    -0.75000
Ni825      Ni  0.87945831  0.51451699  0.64337641     1.25400
Ni826      Ni  0.87201689  0.96168423  0.66263399     1.25400
C827        C  0.93442693  0.47399843  0.63982162     0.87300
C828        C  0.81712759  0.49618015  0.66955724     0.87200
C829        C  0.90094964  0.50938848  0.71131507     0.87200
C830        C  0.85442074  0.96361273  0.59131454     0.87400
O831        O  0.97063874  0.56279734  0.89954324    -0.74900
O832        O  0.95959221  0.65197259  0.86552889    -0.74900
O833        O  0.94863372  0.59040643  0.83965737    -0.75000
O834        O  0.97527829  0.62211356  0.92559061    -0.75100
O835        O  0.02642466  0.62592499  0.90825355    -0.75000
O836        O  0.99913663  0.58794651  0.82053183    -0.75000
O837        O  0.00918567  0.64994122  0.84413708    -0.74900
O838        O  0.02165294  0.56731572  0.88237655    -0.75000
Ni839      Ni  0.96155117  0.60692105  0.88286039     1.25400
Ni840      Ni  0.01579415  0.60813115  0.86281041     1.25400
C841        C  0.99916642  0.55086720  0.89667780     0.87300
C842        C  0.98456241  0.66629652  0.85163558     0.87200
C843        C  0.96889763  0.58039195  0.81772485     0.87200
C844        C  0.00448628  0.62873572  0.93195965     0.87400
O845        O  0.57875404  0.92097314  0.61910176    -0.74900
O846        O  0.66715066  0.93468452  0.64998699    -0.74900
O847        O  0.60821020  0.92188982  0.68091400    -0.75000
O848        O  0.63712120  0.92867665  0.58810792    -0.75100
O849        O  0.63189841  0.98197312  0.58678962    -0.75000
O850        O  0.59425655  0.97330379  0.68065890    -0.75000
O851        O  0.65605519  0.98679950  0.65269215    -0.74900
O852        O  0.57349299  0.97426792  0.61482023    -0.75000
Ni853      Ni  0.62338758  0.92471897  0.63468087     1.25400
Ni854      Ni  0.61409383  0.98112663  0.63408233     1.25400
C855        C  0.56176469  0.94622852  0.61214575     0.87300
C856        C  0.67620364  0.96392207  0.65521471     0.87200
C857        C  0.59226997  0.94440518  0.69426428     0.87200
C858        C  0.63772307  0.95547393  0.57136102     0.87400
O859        O  0.54772497  0.90515816  0.89018343    -0.74900
O860        O  0.53921877  0.81610014  0.86246023    -0.74900
O861        O  0.54928873  0.87549206  0.82894344    -0.75000
O862        O  0.54207978  0.84736502  0.92357255    -0.75100
O863        O  0.98857068  0.85101524  0.92299426    -0.75000
O864        O  0.49635223  0.88322837  0.82525420    -0.75000
O865        O  0.48639456  0.82330099  0.85821625    -0.74900
O866        O  0.49417332  0.90815867  0.88849262    -0.75000
Ni867      Ni  0.54647958  0.86057381  0.87617270     1.25400
Ni868      Ni  0.48948305  0.86628828  0.87312436     1.25400
C869        C  0.52147172  0.92097959  0.89411505     0.87300
C870        C  0.51063176  0.80479525  0.85687905     0.87200
C871        C  0.52504644  0.88661828  0.81239394     0.87200
C872        C  0.51496575  0.84660924  0.93915201     0.87400
O873        O  0.54740054  0.56654804  0.12629302    -0.74900
O874        O  0.53881267  0.65481876  0.15647527    -0.74900
O875        O  0.55124109  0.59548672  0.18814116    -0.75000
O876        O  0.53986719  0.62497036  0.09516766    -0.75100
O877        O  0.48665376  0.61853167  0.09897244    -0.75000
O878        O  0.49885839  0.58493808  0.19470938    -0.75000
O879        O  0.48622879  0.64529497  0.16322518    -0.74900
O880        O  0.49411966  0.56148807  0.13107594    -0.75000
Ni881      Ni  0.54620813  0.61091225  0.14161438     1.25400
Ni882      Ni  0.48953127  0.60268988  0.14754485     1.25400
C883        C  0.52120215  0.54986152  0.12322428     0.87300
C884        C  0.51006703  0.66482077  0.16269614     0.87200
C885        C  0.52821071  0.58263779  0.20580344     0.87200
C886        C  0.51238848  0.62459661  0.08075169     0.87400
O887        O  0.57124999  0.49699026  0.40309797    -0.74900
O888        O  0.66008725  0.51135430  0.36988543    -0.74900
O889        O  0.59843046  0.52542811  0.34480913    -0.75000
O890        O  0.63122710  0.48942630  0.42793431    -0.75100
O891        O  0.63784613  0.94396003  0.39883465    -0.75000
O892        O  0.59641545  0.47841953  0.31927824    -0.75000
O893        O  0.66554419  0.96802015  0.33962025    -0.74900
O894        O  0.58057271  0.95264841  0.36790700    -0.75000
Ni895      Ni  0.61523014  0.50772275  0.38681615     1.25400
Ni896      Ni  0.62277917  0.95984868  0.35316593     1.25400
C897        C  0.55826740  0.46928414  0.39701355     0.87300
C898        C  0.67380525  0.48769692  0.35465801     0.87200
C899        C  0.59072547  0.50903225  0.31871783     0.87200
C900        C  0.64103194  0.96325976  0.42429381     0.87400
O901        O  0.91333368  0.91807570  0.39800803    -0.74900
O902        O  0.82518071  0.93644635  0.36952776    -0.74900
O903        O  0.88176364  0.91996489  0.33741945    -0.75000
O904        O  0.85691682  0.92945185  0.43070349    -0.75100
O905        O  0.86475972  0.98255238  0.42665852    -0.75000
O906        O  0.89996042  0.97019203  0.33285214    -0.75000
O907        O  0.83997946  0.98764145  0.36087031    -0.74900
O908        O  0.92209935  0.97108366  0.39817121    -0.75000
Ni909      Ni  0.86858244  0.92416102  0.38397596     1.25400
Ni910      Ni  0.88174479  0.97990262  0.37915902     1.25400
C911        C  0.93209146  0.94255200  0.40237492     0.87300
C912        C  0.81810635  0.96596368  0.36160425     0.87200
C913        C  0.89888844  0.94123701  0.32129391     0.87200
C914        C  0.85746233  0.95668479  0.44468318     0.87400
O915        O  0.97341557  0.90562597  0.12462049    -0.74900
O916        O  0.96220536  0.81657654  0.15825381    -0.74900
O917        O  0.95246889  0.87678054  0.18545993    -0.75000
O918        O  0.97783822  0.84696110  0.09776802    -0.75100
O919        O  0.52998515  0.84564716  0.11226037    -0.75000
O920        O  0.00302299  0.87786413  0.20456869    -0.75000
O921        O  0.01293042  0.81803014  0.17654545    -0.74900
O922        O  0.02405758  0.90299085  0.14289755    -0.75000
Ni923      Ni  0.96454327  0.86147793  0.14127719     1.25400
Ni924      Ni  0.01905896  0.86098969  0.16031891     1.25400
C925        C  0.00183745  0.91826042  0.12722492     0.87300
C926        C  0.98722100  0.80217604  0.17101271     0.87200
C927        C  0.97271875  0.88361824  0.20902976     0.87200
C928        C  0.00723123  0.84242918  0.09031575     0.87400
C929        C  0.91411523  0.89659322  0.28254063    -0.09600
C930        C  0.91897217  0.92909743  0.29131371     0.06500
C931        C  0.94522599  0.94568182  0.27479351    -0.03400
C932        C  0.96446867  0.93018586  0.24966582    -0.07900
C933        C  0.95887252  0.89776474  0.24120686     0.05700
C934        C  0.93367366  0.88114293  0.25867538    -0.02900
Br935      Br  0.92494840  0.83647328  0.25091335    -0.02600
H936        H  0.89503627  0.88233526  0.29475395     0.09600
H937        H  0.98324209  0.94375010  0.23607497     0.07600
Br938      Br  0.95622267  0.98911915  0.28547291    -0.03000
C939        C  0.00572550  0.48123796  0.42650874    -0.09600
C940        C  0.53015532  0.96421508  0.38990072     0.06500
C941        C  0.51392851  0.94313636  0.36726109    -0.03400
C942        C  0.48356665  0.93077285  0.37591422    -0.07900
C943        C  0.96704854  0.94008128  0.40582240     0.05700
C944        C  0.98361647  0.95993290  0.42919152    -0.02900
Br945      Br  0.94685123  0.50474757  0.45424825    -0.02600
H946        H  0.01481559  0.50470528  0.43334277     0.09600
H947        H  0.47078092  0.91669674  0.35694527     0.07600
Br948      Br  0.52955915  0.93340619  0.32158579    -0.03000
C949        C  0.76446499  0.95585135  0.33502536    -0.09600
C950        C  0.78425066  0.97581926  0.35432423     0.06500
C951        C  0.77110419  0.00487773  0.36641695    -0.03400
C952        C  0.72975332  0.50002612  0.37492195    -0.07900
C953        C  0.71763039  0.99002029  0.34520038     0.05700
C954        C  0.73205900  0.96322759  0.32910480    -0.02900
Br955      Br  0.70991051  0.93519908  0.29800243    -0.02600
H956        H  0.77443589  0.93447145  0.32397295     0.09600
H957        H  0.71977731  0.51805078  0.39146431     0.07600
Br958      Br  0.78545872  0.51177311  0.41549251    -0.03000
C959        C  0.99031783  0.50465062  0.10083021    -0.09600
C960        C  0.51997586  0.51600123  0.11280197     0.06500
C961        C  0.55166744  0.99463617  0.11569571    -0.03400
C962        C  0.54329185  0.96218575  0.11985549    -0.07900
C963        C  0.01091743  0.95095362  0.11353169     0.05700
C964        C  0.98958431  0.97194991  0.09611974    -0.02900
Br965      Br  0.94747927  0.95916949  0.08089280    -0.02600
H966        H  0.97247622  0.52141198  0.09094224     0.09600
H967        H  0.56117098  0.94632605  0.13125872     0.07600
Br968      Br  0.59334717  0.00810735  0.13148917    -0.03000
C969        C  0.52071657  0.71791044  0.19014286    -0.09600
C970        C  0.50288179  0.69948946  0.16709526     0.06500
C971        C  0.97740750  0.71485589  0.14896823    -0.03400
C972        C  0.97055941  0.74745291  0.15316866    -0.07900
C973        C  0.98896657  0.76634282  0.17536121     0.05700
C974        C  0.51407336  0.75068912  0.19416495    -0.02900
Br975      Br  0.54005734  0.77276640  0.22732405    -0.02600
H976        H  0.53991323  0.70676799  0.20512510     0.09600
H977        H  0.95213964  0.75856523  0.13703364     0.07600
Br978      Br  0.95305209  0.69307420  0.11426298    -0.03000
C979        C  0.56139037  0.57853217  0.25910211    -0.09600
C980        C  0.53805088  0.56414385  0.23821716     0.06500
C981        C  0.53249671  0.53061681  0.24335477    -0.03400
C982        C  0.55020741  0.51255802  0.26869411    -0.07900
C983        C  0.57412885  0.52713526  0.28915567     0.05700
C984        C  0.57929652  0.56083092  0.28378800    -0.02900
Br985      Br  0.61229510  0.58478780  0.30710227    -0.02600
H986        H  0.56705275  0.60387805  0.25484802     0.09600
H987        H  0.54517907  0.48705401  0.27239337     0.07600
Br988      Br  0.50274962  0.50803251  0.21467295    -0.03000
C989        C  0.99253503  0.82208248  0.99615732    -0.09600
C990        C  0.51532224  0.84231814  0.97780846     0.06500
C991        C  0.53858121  0.85848570  0.99813779    -0.03400
C992        C  0.53818860  0.85509152  0.03458030    -0.07900
C993        C  0.01419263  0.83637502  0.05308179     0.05700
C994        C  0.99203388  0.81889987  0.03268195    -0.02900
Br995      Br  0.95996908  0.79063313  0.05342580    -0.02600
H996        H  0.97504600  0.80897058  0.98115670     0.09600
H997        H  0.55469051  0.86945074  0.04953756     0.07600
Br998      Br  0.56911123  0.88901773  0.97831912    -0.03000
C999        C  0.62811982  0.93137460  0.47748896    -0.09600
C1000       C  0.64921324  0.95280926  0.46014649     0.06500
C1001       C  0.66629686  0.46980333  0.48683741    -0.03400
C1002       C  0.66583510  0.97353408  0.51625872    -0.07900
C1003       C  0.64267046  0.95406189  0.53330257     0.05700
C1004       C  0.62476251  0.93173248  0.51368650    -0.02900
Br1005     Br  0.59236850  0.90353511  0.53401788    -0.02600
H1006       H  0.61187261  0.91657643  0.46266389     0.09600
H1007       H  0.67904212  0.48724312  0.53719322     0.07600
Br1008     Br  0.69662142  0.49872672  0.46424976    -0.03000
C1009       C  0.55715024  0.90172771  0.72173302    -0.09600
C1010       C  0.56917746  0.93367782  0.72293925     0.06500
C1011       C  0.55946754  0.95203974  0.75131213    -0.03400
C1012       C  0.54149940  0.93723386  0.77904876    -0.07900
C1013       C  0.53219222  0.90440060  0.77881310     0.05700
C1014       C  0.53923457  0.88722846  0.74903270    -0.02900
Br1015     Br  0.52708497  0.84280536  0.74583329    -0.02600
H1016       H  0.56272517  0.88715945  0.69969459     0.09600
H1017       H  0.53645867  0.95092279  0.80187768     0.07600
Br1018     Br  0.57216849  0.99619993  0.75486100    -0.03000
C1019       C  0.53608600  0.61924072  0.98521045    -0.09600
C1020       C  0.01144678  0.63613660  0.96870093     0.06500
C1021       C  0.98793582  0.65129064  0.98936512    -0.03400
C1022       C  0.98844701  0.64772356  0.02581150    -0.07900
C1023       C  0.51210189  0.62919763  0.04220417     0.05700
C1024       C  0.53650719  0.61538807  0.02152364    -0.02900
Br1025     Br  0.56897555  0.58719641  0.04045494    -0.02600
H1026       H  0.55352076  0.60646542  0.96997798     0.09600
H1027       H  0.96991585  0.65889372  0.04105079     0.07600
Br1028     Br  0.95370126  0.67633220  0.96907254    -0.03000
C1029       C  0.99300462  0.96559029  0.92133968    -0.09600
C1030       C  0.52058996  0.95509718  0.90300423     0.06500
C1031       C  0.54106215  0.97782916  0.88653027    -0.03400
C1032       C  0.53801356  0.50605011  0.89505796    -0.07900
C1033       C  0.00795304  0.51735767  0.90709771     0.05700
C1034       C  0.98307878  0.99759949  0.91821614    -0.02900
Br1035     Br  0.94378837  0.00886877  0.94100426    -0.02600
H1036       H  0.97741961  0.94833719  0.93505105     0.09600
H1037       H  0.55512461  0.52205288  0.88182257     0.07600
Br1038     Br  0.58002559  0.96643783  0.86301510    -0.03000
C1039       C  0.47217420  0.75768702  0.85653043    -0.09600
C1040       C  0.50388802  0.76977575  0.85088698     0.06500
C1041       C  0.02742807  0.74770876  0.84160472    -0.03400
C1042       C  0.01958900  0.71490217  0.83931851    -0.07900
C1043       C  0.98841910  0.70234329  0.84743925     0.05700
C1044       C  0.46442802  0.72471796  0.85478296    -0.02900
Br1045     Br  0.42055581  0.71200462  0.86374655    -0.02600
H1046       H  0.45312331  0.77388664  0.86354575     0.09600
H1047       H  0.03883708  0.69891550  0.83236008     0.07600
Br1048     Br  0.07086257  0.76068182  0.83030157    -0.03000
C1049       C  0.82653175  0.97251969  0.53580102    -0.09600
C1050       C  0.84693516  0.95268147  0.55619656     0.06500
C1051       C  0.86814969  0.93216594  0.53931950    -0.03400
C1052       C  0.87057394  0.93382168  0.50297565    -0.07900
C1053       C  0.85251401  0.95607773  0.48282783     0.05700
C1054       C  0.82939117  0.97459173  0.49950674    -0.02900
Br1055     Br  0.85027129  0.53225179  0.47464924    -0.02600
H1056       H  0.84728010  0.51705824  0.54661901     0.09600
H1057       H  0.88791142  0.91866162  0.49043185     0.07600
Br1058     Br  0.89739370  0.90482651  0.56472389    -0.03000
C1059       C  0.48376215  0.47051022  0.60216258    -0.09600
C1060       C  0.96424736  0.96574665  0.62309344     0.06500
C1061       C  0.97964211  0.94209132  0.64464317    -0.03400
C1062       C  0.00956268  0.93013723  0.63550965    -0.07900
C1063       C  0.52675326  0.94504484  0.60733716     0.05700
C1064       C  0.51143610  0.96782746  0.58491429    -0.02900
Br1065     Br  0.53634077  0.47263374  0.55374963    -0.02600
H1066       H  0.47220650  0.48584890  0.58270758     0.09600
H1067       H  0.02155495  0.91377499  0.65364770     0.07600
Br1068     Br  0.96429115  0.92823463  0.69010371    -0.03000
C1069       C  0.72301876  0.00108708  0.64447757    -0.09600
C1070       C  0.71060371  0.97292618  0.66129630     0.06500
C1071       C  0.73135383  0.95466664  0.68266310    -0.03400
C1072       C  0.76634928  0.47403522  0.69674312    -0.07900
C1073       C  0.77718283  0.99055452  0.66636251     0.05700
C1074       C  0.75574294  0.00992045  0.64659499    -0.02900
Br1075     Br  0.76931991  0.04775747  0.62040633    -0.02600
H1076       H  0.70729883  0.01584235  0.62825726     0.09600
H1077       H  0.78066030  0.46438995  0.71812925     0.07600
Br1078     Br  0.71655553  0.43567902  0.73013358    -0.03000
C1079       C  0.96235536  0.56441803  0.75538390    -0.09600
C1080       C  0.95591702  0.55844437  0.79068038     0.06500
C1081       C  0.93395129  0.53297146  0.79985845    -0.03400
C1082       C  0.91754388  0.51574491  0.77416671    -0.07900
C1083       C  0.92214889  0.52342251  0.73880288     0.05700
C1084       C  0.94583139  0.54743929  0.72968972    -0.02900
Br1085     Br  0.95717403  0.55869637  0.68231081    -0.02600
H1086       H  0.97924160  0.58335036  0.74763826     0.09600
H1087       H  0.90014390  0.49730274  0.78194713     0.07600
Br1088     Br  0.92522285  0.52027207  0.84737614    -0.03000
loop_ 
_geom_bond_atom_site_label_1 
_geom_bond_atom_site_label_2 
_geom_bond_distance 
_geom_bond_site_symmetry_2 
_ccdc_geom_bond_type 
O1           Ni9   1.968       .  S
O1           C11   1.294   1_545  A
O2           Ni9   1.964       .  S
O2           C12   1.293   1_545  A
O3           Ni9   1.887       .  S
O3           C13   1.270       .  A
O4           Ni9   1.864   1_565  S
O4          C286   1.268       .  A
O5          Ni10   1.985       .  S
O5           C14   1.297       .  A
O6         Ni282   1.968       .  S
O6           C13   1.294   1_565  A
O7          Ni10   1.889       .  S
O7          C284   1.272       .  A
O8          Ni10   1.865       .  S
O8          C283   1.266       .  A
Ni9        Ni282   2.378   1_545  S
Ni10        O278   1.989       .  S
Ni10       Ni281   2.373       .  S
C11         O280   1.265       .  A
C11         C516   1.483       .  S
C12         O279   1.272       .  A
C12         C529   1.505       .  S
C13         C267   1.498       .  S
C14         O276   1.266       .  A
C14         C234   1.501       .  S
O15         Ni23   1.961       .  S
O15          C25   1.293       .  A
O16         Ni23   1.965       .  S
O16          C26   1.294       .  A
O17         Ni23   1.895       .  S
O17          C27   1.273       .  A
O18         Ni23   1.871       .  S
O18          C28   1.268       .  A
O19         Ni24   1.958       .  S
O19          C28   1.293       .  A
O20         Ni24   1.961       .  S
O20          C27   1.292       .  A
O21         Ni24   1.874       .  S
O21          C26   1.270       .  A
O22         Ni24   1.854       .  S
O22          C25   1.266       .  A
Ni23        Ni24   2.380       .  S
C25         C217   1.486       .  S
C26         C227   1.501       .  S
C27         C264   1.491       .  S
C28         C204   1.477       .  S
O29         Ni37   1.958       .  S
O29          C39   1.292       .  A
O30         Ni37   1.962       .  S
O30          C40   1.292       .  A
O31         Ni37   1.888       .  S
O31          C41   1.274       .  A
O32         Ni37   1.887       .  S
O32          C42   1.271       .  A
O33         Ni38   1.956       .  S
O33          C42   1.292       .  A
O34         Ni38   1.979       .  S
O34          C41   1.296       .  A
O35         Ni38   1.905       .  S
O35          C40   1.275       .  A
O36         Ni38   1.865       .  S
O36          C39   1.267       .  A
Ni37        Ni38   2.382       .  S
C39         C247   1.466       .  S
C40         C254   1.494       .  S
C41         C194   1.509       .  S
C42         C187   1.482       .  S
O43         Ni51   1.951       .  S
O43          C53   1.291       .  A
O44         Ni51   1.957       .  S
O44          C54   1.292       .  A
O45         Ni51   1.893       .  S
O45          C55   1.272       .  A
O46         Ni51   1.885       .  S
O46          C56   1.270       .  A
O47        Ni596   1.958       .  S
O47         C600   1.292       .  A
O48         Ni52   1.969       .  S
O48          C55   1.293   1_655  A
O49         Ni52   1.890       .  S
O49          C54   1.272   1_655  A
O50         Ni52   1.859       .  S
O50          C53   1.268   1_655  A
Ni51        Ni52   2.386   1_455  S
Ni52        O591   1.958       .  S
C53         C214   1.472       .  S
C54         C224   1.490   1_455  S
C55         C197   1.489       .  S
C56         O591   1.292   1_455  A
C56         C174   1.483       .  S
O57         Ni65   1.954       .  S
O57          C67   1.291       .  A
O58         Ni65   1.958       .  S
O58          C68   1.292       .  A
O59         Ni65   1.891       .  S
O59          C69   1.274       .  A
O60         Ni65   1.878       .  S
O60          C70   1.270       .  A
O61         Ni66   1.952       .  S
O61          C70   1.291   1_655  A
O62         Ni66   1.964   1_455  S
O62          C69   1.293       .  A
O63         Ni66   1.897       .  S
O63          C68   1.273   1_655  A
O64         Ni66   1.859   1_455  S
O64          C67   1.268       .  A
Ni65        Ni66   2.385   1_455  S
C67         C144   1.473       .  S
C68         C154   1.489       .  S
C69         C164   1.494       .  S
C70         C207   1.477       .  S
O71         Ni79   1.968   1_565  S
O71          C81   1.294       .  A
O72         Ni79   1.969       .  S
O72          C82   1.295   1_545  A
O73         Ni79   1.885       .  S
O73          C83   1.271       .  A
O74         Ni79   1.868   1_565  S
O74         C356   1.268       .  A
O75         Ni80   1.977       .  S
O75          C84   1.296       .  A
O76        Ni352   1.972       .  S
O76          C83   1.294   1_565  A
O77         Ni80   1.883       .  S
O77         C354   1.268       .  A
O78         Ni80   1.861       .  S
O78         C353   1.263       .  A
Ni79       Ni352   2.379   1_545  S
Ni80        O348   1.983       .  S
Ni80       Ni351   2.376       .  S
C81         O350   1.265       .  A
C81         C396   1.478       .  S
C82         O349   1.266       .  A
C82         C409   1.501       .  S
C83         C167   1.500       .  S
C84         O346   1.265       .  A
C84         C184   1.480       .  S
O85         Ni93   1.960       .  S
O85          C95   1.292       .  A
O86         Ni93   1.967       .  S
O86          C96   1.293       .  A
O87         Ni93   1.901       .  S
O87          C97   1.277       .  A
O88         Ni93   1.889       .  S
O88          C98   1.272       .  A
O89         Ni94   1.950       .  S
O89          C98   1.292       .  A
O90         Ni94   1.967       .  S
O90          C97   1.293       .  A
O91         Ni94   1.899       .  S
O91          C96   1.273       .  A
O92         Ni94   1.864       .  S
O92          C95   1.267       .  A
Ni93        Ni94   2.380       .  S
C95         C127   1.476       .  S
C96         C134   1.497       .  S
C97         C114   1.509       .  S
C98         C237   1.496       .  S
O99        Ni107   1.959       .  S
O99         C109   1.292       .  A
O100       Ni107   1.961       .  S
O100        C110   1.294       .  A
O101       Ni107   1.894       .  S
O101        C111   1.273       .  A
O102       Ni107   1.872       .  S
O102        C112   1.268       .  A
O103       Ni652   1.968       .  S
O103        C656   1.294       .  A
O104       Ni108   1.975       .  S
O104        C111   1.294       .  A
O105       Ni108   1.886       .  S
O105        C110   1.271       .  A
O106       Ni108   1.864       .  S
O106        C109   1.268       .  A
Ni107      Ni108   2.380       .  S
Ni108       O647   1.968       .  S
C109        C147   1.490       .  S
C110        C157   1.496       .  S
C111        C117   1.501       .  S
C112        O647   1.294       .  A
C112        C177   1.481       .  S
C113        C114   1.408       .  A
C113        C118   1.400       .  A
C113        H120   1.083       .  S
C114        C115   1.420       .  A
C115        C116   1.420       .  A
C115       Br122   1.918       .  S
C116        C117   1.411       .  A
C116        H121   1.083       .  S
C117        C118   1.412       .  A
C118       Br119   1.923       .  S
C123        C940   1.401       .  A
C123        C400   1.404       .  A
C123        H130   1.085       .  S
C124        C353   1.491       .  S
C124        C125   1.431       .  A
C124        C939   1.398       .  A
C125        C126   1.398   1_455  A
C125       Br132   1.927       .  S
C126        C671   1.391       .  A
C126        H131   1.084       .  S
C127        C128   1.418       .  A
C127        C670   1.391       .  A
C128        C395   1.400       .  A
C128       Br401   1.922       .  S
Br129       C400   1.919       .  S
C133        C134   1.398       .  A
C133        C138   1.410       .  A
C133        H140   1.084       .  S
C134        C135   1.419       .  A
C135        C408   1.405       .  A
C135       Br414   1.915       .  S
C136        C407   1.407       .  A
C136        C409   1.402   1_545  A
C136        H141   1.083       .  S
C137        C354   1.505       .  S
C137        C138   1.429       .  A
C137        C408   1.401       .  A
C138       Br139   1.922       .  S
Br142       C407   1.919       .  S
C143        C688   1.413       .  A
C143        C420   1.398   1_545  A
C143        H150   1.083       .  S
C144        C687   1.413   1_455  A
C144        C417   1.398   1_545  A
C145        C146   1.396       .  A
C145        C416   1.399       .  A
C145       Br152   1.920       .  S
C146        C691   1.419       .  A
C146        H151   1.082       .  S
C147        C148   1.406       .  A
C147        C690   1.419       .  A
C148        C415   1.398       .  A
C148       Br149   1.920       .  S
C153        C154   1.399       .  A
C153        C158   1.407       .  A
C153        H160   1.084       .  S
C154        C699   1.417   1_455  A
C155        C156   1.403       .  A
C155        C698   1.417       .  A
C155       Br162   1.919       .  S
C156        C157   1.402       .  A
C156        H161   1.083       .  S
C157        C702   1.424       .  A
C158        C701   1.424   1_455  A
C158       Br159   1.921       .  S
C163        C164   1.403       .  A
C163        C168   1.399       .  A
C163        H170   1.084       .  S
C164        C165   1.416       .  A
C165        C166   1.415       .  A
C165       Br172   1.917       .  S
C166        C167   1.409       .  A
C166        H171   1.083   1_545  S
C167        C168   1.420       .  A
C168       Br169   1.926       .  S
C173        C178   1.403   1_556  A
C173        C718   1.397       .  A
C173        H180   1.083       .  S
C174        C175   1.420   1_556  A
C174        C717   1.397   1_455  A
C175        C176   1.402       .  A
C175       Br182   1.922   1_554  S
C176        C721   1.398       .  A
C176        H181   1.083       .  S
C177        C178   1.419       .  A
C177        C720   1.398       .  A
C178       Br179   1.919       .  S
C183        C184   1.398       .  A
C183        C188   1.403       .  A
C183        H190   1.084       .  S
C184        C457   1.420       .  A
C185        C456   1.417       .  A
C185        C458   1.403       .  A
C185       Br192   1.920       .  S
C186        C187   1.396       .  A
C186        C457   1.402       .  A
C186        H463   1.083       .  S
C187        C188   1.420       .  A
C188       Br189   1.921       .  S
H191        C458   1.083       .  S
C193        C194   1.416       .  A
C193        C198   1.401       .  A
C193        H200   1.084       .  S
C194        C195   1.411       .  A
C195        C196   1.418       .  A
C195       Br202   1.914       .  S
C196        C197   1.414       .  A
C196        H201   1.083       .  S
C197        C198   1.402       .  A
C198       Br199   1.919       .  S
C203        C208   1.398   1_556  A
C203        C748   1.397       .  A
C203        H210   1.084       .  S
C204        C205   1.419       .  A
C204        C747   1.397       .  A
C205        C206   1.400   1_556  A
C205       Br212   1.918       .  S
C206        C751   1.396       .  A
C206        H211   1.082       .  S
C207        C208   1.419       .  A
C207        C750   1.396   1_455  A
C208       Br209   1.924       .  S
C213        C218   1.399       .  A
C213        C758   1.414       .  A
C213        H220   1.084       .  S
C214        C215   1.398       .  A
C214        C757   1.414   1_455  A
C215        C488   1.392       .  A
C215       Br222   1.921       .  S
C216        C487   1.392   1_545  A
C216        C761   1.418       .  A
C216        H221   1.083       .  S
C217        C760   1.418       .  A
C217        C490   1.405   1_545  A
C218        C489   1.404       .  A
C218       Br219   1.918       .  S
C223        C224   1.413       .  A
C223        C228   1.406       .  A
C223        H230   1.084       .  S
C224        C769   1.402   1_655  A
C225        C226   1.401       .  A
C225        C768   1.402       .  A
C225       Br232   1.918       .  S
C226        C227   1.419       .  A
C226        H231   1.084       .  S
C227        C772   1.411       .  A
C228        C771   1.411       .  A
C228       Br229   1.918       .  S
C233        C234   1.417       .  A
C233        C238   1.392       .  A
C233        H512   1.083       .  S
C234        C235   1.406       .  A
C235        C236   1.411       .  A
C235       Br242   1.917       .  S
C236        C237   1.422       .  A
C236        H241   1.083       .  S
C237        C238   1.406       .  A
C238       Br511   1.922       .  S
Br239       C510   1.909   1_545  S
H240        C505   1.084       .  S
C243       C1060   1.403       .  A
C243        C520   1.406   1_655  A
C243        H250   1.083       .  S
C244        C283   1.477       .  S
C244        C245   1.419       .  A
C244       C1059   1.400       .  A
C245        C246   1.394       .  A
C245       Br252   1.925       .  S
C246        C791   1.395       .  A
C246        H251   1.083       .  S
C247        C248   1.416       .  A
C247        C790   1.395       .  A
C248        C515   1.404   1_455  A
C248       Br521   1.918       .  S
Br249       C520   1.921       .  S
C253        C254   1.410       .  A
C253        C258   1.409       .  A
C253        H260   1.085       .  S
C254        C255   1.404       .  A
C255        C528   1.408       .  A
C255       Br534   1.916       .  S
C256        C527   1.405       .  A
C256        C529   1.419       .  A
C256        H261   1.084       .  S
C257        C284   1.503       .  S
C257        C258   1.415       .  A
C257        C528   1.416       .  A
C258       Br259   1.919       .  S
Br262       C527   1.918       .  S
C263        C264   1.396       .  A
C263        C268   1.406       .  A
C263        H270   1.083       .  S
C264        C265   1.420       .  A
C265        C266   1.406       .  A
C265       Br272   1.919       .  S
C266        C267   1.399       .  A
C266        H271   1.082   1_545  S
C267        C268   1.428       .  A
C268       Br269   1.924       .  S
O273       Ni281   1.967       .  S
O273        C283   1.294       .  A
O274       Ni281   1.968       .  S
O274        C284   1.294       .  A
O275       Ni281   1.880       .  S
O275        C285   1.268       .  A
O276       Ni281   1.851       .  S
O277       Ni282   1.959       .  S
O277        C286   1.292       .  A
O278        C285   1.299       .  A
O279       Ni282   1.885       .  S
O280       Ni282   1.861       .  S
C285        C539   1.506       .  S
C286        C506   1.473       .  S
O287       Ni295   1.966       .  S
O287        C297   1.294       .  A
O288       Ni295   1.972       .  S
O288        C298   1.295       .  A
O289       Ni295   1.896       .  S
O289        C299   1.272       .  A
O290       Ni295   1.868       .  S
O290        C300   1.266       .  A
O291       Ni296   1.969       .  S
O291        C300   1.295       .  A
O292       Ni296   1.977       .  S
O292        C299   1.296       .  A
O293       Ni296   1.883       .  S
O293        C298   1.271       .  A
O294       Ni296   1.853       .  S
O294        C297   1.265       .  A
Ni295      Ni296   2.377       .  S
C297        C489   1.487       .  S
C298        C499   1.510       .  S
C299        C536   1.504       .  S
C300        C476   1.484       .  S
O301       Ni309   1.954       .  S
O301        C311   1.292       .  A
O302       Ni309   1.956       .  S
O302        C312   1.292       .  A
O303       Ni309   1.886       .  S
O303        C313   1.273       .  A
O304       Ni309   1.880       .  S
O304        C314   1.269       .  A
O305       Ni310   1.961       .  S
O305        C314   1.293       .  A
O306       Ni310   1.986       .  S
O306        C313   1.297       .  A
O307       Ni310   1.898       .  S
O307        C312   1.274       .  A
O308       Ni310   1.864       .  S
O308        C311   1.266       .  A
Ni309      Ni310   2.381       .  S
C311        C519   1.465       .  S
C312        C526   1.494       .  S
C313        C466   1.514       .  S
C314        C459   1.481       .  S
O315       Ni323   1.948       .  S
O315        C325   1.289       .  A
O316       Ni323   1.961       .  S
O316        C326   1.293       .  A
O317       Ni323   1.905       .  S
O317        C327   1.275       .  A
O318       Ni323   1.896       .  S
O318        C328   1.273       .  A
O319       Ni868   1.960       .  S
O319        C872   1.292       .  A
O320       Ni324   1.970       .  S
O320        C327   1.293   1_655  A
O321       Ni324   1.898       .  S
O321        C326   1.274   1_655  A
O322       Ni324   1.865       .  S
O322        C325   1.269   1_655  A
Ni323      Ni324   2.382   1_455  S
Ni324       O863   1.960       .  S
C325        C486   1.471       .  S
C326        C496   1.505       .  S
C327        C469   1.496       .  S
C328        O863   1.292   1_455  A
C328        C446   1.493       .  S
O329       Ni337   1.957       .  S
O329        C339   1.292       .  A
O330       Ni337   1.959       .  S
O330        C340   1.292       .  A
O331       Ni337   1.893       .  S
O331        C341   1.274       .  A
O332       Ni337   1.881       .  S
O332        C342   1.269       .  A
O333       Ni338   1.965       .  S
O333        C342   1.294   1_655  A
O334       Ni338   1.976       .  S
O334        C341   1.295   1_655  A
O335       Ni338   1.896       .  S
O335        C340   1.273   1_655  A
O336       Ni338   1.858       .  S
O336        C339   1.268   1_655  A
Ni337      Ni338   2.382   1_455  S
C339        C416   1.478       .  S
C340        C426   1.490       .  S
C341        C436   1.503       .  S
C342        C479   1.489       .  S
O343       Ni351   1.969       .  S
O343        C353   1.295       .  A
O344       Ni351   1.972       .  S
O344        C354   1.297       .  A
O345       Ni351   1.892       .  S
O345        C355   1.271       .  A
O346       Ni351   1.860       .  S
O347       Ni352   1.963       .  S
O347        C356   1.293       .  A
O348        C355   1.296       .  A
O349       Ni352   1.873       .  S
O350       Ni352   1.858       .  S
C355        C439   1.514       .  S
C356        C456   1.474       .  S
O357       Ni365   1.951       .  S
O357        C367   1.291       .  A
O358       Ni365   1.954       .  S
O358        C368   1.292       .  A
O359       Ni365   1.886       .  S
O359        C369   1.274       .  A
O360       Ni365   1.880       .  S
O360        C370   1.270       .  A
O361       Ni366   1.963       .  S
O361        C370   1.294       .  A
O362       Ni366   1.987       .  S
O362        C369   1.297       .  A
O363       Ni366   1.898       .  S
O363        C368   1.272       .  A
O364       Ni366   1.865       .  S
O364        C367   1.267       .  A
Ni365      Ni366   2.378       .  S
C367        C399   1.461       .  S
C368        C406   1.492       .  S
C369        C386   1.523       .  S
C370        C509   1.482       .  S
O371       Ni379   1.956       .  S
O371        C381   1.292       .  A
O372       Ni379   1.960       .  S
O372        C382   1.294       .  A
O373       Ni379   1.900       .  S
O373        C383   1.274       .  A
O374       Ni379   1.880       .  S
O374        C384   1.269       .  A
O375       Ni924   1.970       .  S
O375        C928   1.295       .  A
O376       Ni380   1.978       .  S
O376        C383   1.294       .  A
O377       Ni380   1.887       .  S
O377        C382   1.270       .  A
O378       Ni380   1.861       .  S
O378        C381   1.268       .  A
Ni379      Ni380   2.380       .  S
Ni380       O919   1.970       .  S
C381        C419   1.487       .  S
C382        C429   1.497       .  S
C383        C389   1.502       .  S
C384        O919   1.295       .  A
C384        C449   1.489       .  S
C385        C386   1.416       .  A
C385        C390   1.400       .  A
C385        H392   1.081       .  S
C386        C387   1.421       .  A
C387        C388   1.426       .  A
C387       Br394   1.916       .  S
C388        C389   1.414       .  A
C388        H393   1.081       .  S
C389        C390   1.405       .  A
C390       Br391   1.922       .  S
C395        C668   1.399       .  A
C395        H402   1.083       .  S
C396        C667   1.401       .  A
C396        C397   1.421       .  A
C397        C398   1.391   1_455  A
C397       Br404   1.927       .  S
C398        C943   1.394       .  A
C398        H403   1.086       .  S
C399        C942   1.394       .  A
C399        C400   1.415       .  A
C405        C406   1.394       .  A
C405        C410   1.400       .  A
C405        H412   1.083       .  S
C406        C407   1.422   1_565  A
C408        H413   1.084       .  S
C409        C410   1.429       .  A
C410       Br411   1.926       .  S
C415        C960   1.415       .  A
C415        H422   1.083       .  S
C416        C959   1.415   1_455  A
C417        C418   1.394       .  A
C417       Br424   1.919   1_565  S
C418        C963   1.419       .  A
C418        H423   1.082       .  S
C419        C962   1.419       .  A
C419        C420   1.406       .  A
C420       Br421   1.920       .  S
C425        C426   1.399       .  A
C425        C430   1.407       .  A
C425        H432   1.083       .  S
C426        C971   1.418   1_455  A
C427        C970   1.418       .  A
C427        C428   1.403       .  A
C427       Br434   1.921       .  S
C428        C429   1.401       .  A
C428        H433   1.084       .  S
C429        C974   1.425       .  A
C430        C973   1.425   1_455  A
C430       Br431   1.922       .  S
C435        C436   1.402       .  A
C435        C440   1.402       .  A
C435        H442   1.085       .  S
C436        C437   1.418       .  A
C437        C438   1.421       .  A
C437       Br444   1.917       .  S
C438        C439   1.412       .  A
C438        H443   1.084       .  S
C439        C440   1.424       .  A
C440       Br441   1.926       .  S
C445        C990   1.400       .  A
C445        C450   1.406   1_556  A
C445        H452   1.082       .  S
C446        C989   1.400   1_455  A
C446        C447   1.421       .  A
C447        C448   1.405   1_556  A
C447       Br454   1.923       .  S
C448        C993   1.400       .  A
C448        H453   1.083       .  S
C449        C992   1.399       .  A
C449        C450   1.420       .  A
C450       Br451   1.921       .  S
C455        C456   1.396       .  A
C455        C460   1.399       .  A
C455        H462   1.084       .  S
C457       Br464   1.919       .  S
C458        C459   1.399       .  A
C459        C460   1.421       .  A
C460       Br461   1.922       .  S
C465        C466   1.417       .  A
C465        C470   1.402       .  A
C465        H472   1.084       .  S
C466        C467   1.413       .  A
C467        C468   1.420       .  A
C467       Br474   1.915       .  S
C468        C469   1.416       .  A
C468        H473   1.083       .  S
C469        C470   1.401       .  A
C470       Br471   1.918       .  S
C475       C1020   1.396       .  A
C475        C480   1.401   1_556  A
C475        H482   1.084       .  S
C476       C1019   1.396       .  A
C476        C477   1.422       .  A
C477        C478   1.405   1_556  A
C477       Br484   1.922       .  S
C478       C1023   1.399       .  A
C478        H483   1.083       .  S
C479       C1022   1.399   1_455  A
C479        C480   1.423       .  A
C480       Br481   1.924       .  S
C485       C1030   1.413       .  A
C485        C490   1.399       .  A
C485        H492   1.084       .  S
C486       C1029   1.413   1_455  A
C486        C487   1.399       .  A
C487       Br494   1.921       .  S
C488       C1033   1.420       .  A
C488        H493   1.083       .  S
C489       C1032   1.420       .  A
C490       Br491   1.918   1_565  S
C495        C496   1.417   1_655  A
C495        C500   1.409       .  A
C495        H502   1.083       .  S
C496       C1041   1.408       .  A
C497       C1040   1.408       .  A
C497        C498   1.405       .  A
C497       Br504   1.921       .  S
C498        C499   1.420       .  A
C498        H503   1.083       .  S
C499       C1044   1.410       .  A
C500       C1043   1.410       .  A
C500       Br501   1.918       .  S
C505        C506   1.410       .  A
C505        C510   1.400       .  A
C506        C507   1.404       .  A
C507        C508   1.400       .  A
C507       Br514   1.919       .  S
C508        C509   1.411       .  A
C508        H513   1.084       .  S
C509        C510   1.403       .  A
C515        C788   1.400       .  A
C515        H522   1.083       .  S
C516        C787   1.403       .  A
C516        C517   1.423       .  A
C517        C518   1.390       .  A
C517       Br524   1.928       .  S
C518       C1063   1.391       .  A
C518        H523   1.084       .  S
C519       C1062   1.391       .  A
C519        C520   1.417       .  A
C525        C526   1.412   1_545  A
C525        C530   1.406       .  A
C525        H532   1.085       .  S
C526        C527   1.404       .  A
C528        H533   1.084       .  S
C529        C530   1.413   1_565  A
C530       Br531   1.919       .  S
C535        C536   1.397       .  A
C535        C540   1.409       .  A
C535        H542   1.083       .  S
C536        C537   1.425       .  A
C537        C538   1.412       .  A
C537       Br544   1.918       .  S
C538        C539   1.399       .  A
C538        H543   1.082       .  S
C539        C540   1.429       .  A
C540       Br541   1.923       .  S
O545       Ni553   1.967       .  S
O545        C555   1.294   1_545  A
O546       Ni553   1.963       .  S
O546        C556   1.293   1_545  A
O547       Ni553   1.887       .  S
O547        C557   1.270       .  A
O548       Ni553   1.865   1_565  S
O548        C830   1.268       .  A
O549       Ni554   1.984       .  S
O549        C558   1.297       .  A
O550       Ni826   1.967       .  S
O550        C557   1.294   1_565  A
O551       Ni554   1.889       .  S
O551        C828   1.272       .  A
O552       Ni554   1.865       .  S
O552        C827   1.266       .  A
Ni553      Ni826   2.379   1_545  S
Ni554       O822   1.988       .  S
Ni554      Ni825   2.374       .  S
C555        O824   1.265       .  A
C555       C1060   1.483       .  S
C556        O823   1.272       .  A
C556       C1073   1.505       .  S
C557        C811   1.498       .  S
C558        O820   1.266       .  A
C558        C778   1.501       .  S
O559       Ni567   1.962       .  S
O559        C569   1.293       .  A
O560       Ni567   1.965       .  S
O560        C570   1.293       .  A
O561       Ni567   1.894       .  S
O561        C571   1.273       .  A
O562       Ni567   1.870       .  S
O562        C572   1.268       .  A
O563       Ni568   1.957       .  S
O563        C572   1.293   1_455  A
O564       Ni568   1.961   1_655  S
O564        C571   1.292       .  A
O565       Ni568   1.873   1_655  S
O565        C570   1.270       .  A
O566       Ni568   1.854       .  S
O566        C569   1.266   1_455  A
Ni567      Ni568   2.380   1_655  S
C569        C761   1.486   1_655  S
C570        C771   1.500       .  S
C571        C808   1.490       .  S
C572        C748   1.476   1_655  S
O573       Ni581   1.957       .  S
O573        C583   1.292       .  A
O574       Ni581   1.961       .  S
O574        C584   1.292       .  A
O575       Ni581   1.888       .  S
O575        C585   1.274       .  A
O576       Ni581   1.887       .  S
O576        C586   1.271       .  A
O577       Ni582   1.956       .  S
O577        C586   1.292       .  A
O578       Ni582   1.978       .  S
O578        C585   1.296       .  A
O579       Ni582   1.905       .  S
O579        C584   1.275       .  A
O580       Ni582   1.865       .  S
O580        C583   1.267       .  A
Ni581      Ni582   2.382       .  S
C583        C791   1.466       .  S
C584        C798   1.494       .  S
C585        C738   1.509       .  S
C586        C731   1.482       .  S
O587       Ni595   1.952       .  S
O587        C597   1.291       .  A
O588       Ni595   1.958       .  S
O588        C598   1.292       .  A
O589       Ni595   1.892       .  S
O589        C599   1.272       .  A
O590       Ni595   1.885       .  S
O590        C600   1.270       .  A
O592       Ni596   1.969       .  S
O592        C599   1.293       .  A
O593       Ni596   1.890       .  S
O593        C598   1.272       .  A
O594       Ni596   1.859       .  S
O594        C597   1.268       .  A
Ni595      Ni596   2.386       .  S
C597        C758   1.472       .  S
C598        C768   1.490       .  S
C599        C741   1.490       .  S
C600        C718   1.483       .  S
O601       Ni609   1.954       .  S
O601        C611   1.291       .  A
O602       Ni609   1.958       .  S
O602        C612   1.292       .  A
O603       Ni609   1.891       .  S
O603        C613   1.274       .  A
O604       Ni609   1.879       .  S
O604        C614   1.270       .  A
O605       Ni610   1.952       .  S
O605        C614   1.291       .  A
O606       Ni610   1.964       .  S
O606        C613   1.292       .  A
O607       Ni610   1.897       .  S
O607        C612   1.273       .  A
O608       Ni610   1.860       .  S
O608        C611   1.268       .  A
Ni609      Ni610   2.385       .  S
C611        C688   1.473       .  S
C612        C698   1.489       .  S
C613        C708   1.494       .  S
C614        C751   1.477       .  S
O615       Ni623   1.968       .  S
O615        C625   1.294   1_545  A
O616       Ni623   1.969       .  S
O616        C626   1.295   1_545  A
O617       Ni623   1.885       .  S
O617        C627   1.271       .  A
O618       Ni623   1.868   1_565  S
O618        C900   1.268       .  A
O619       Ni624   1.978       .  S
O619        C628   1.296       .  A
O620       Ni896   1.972       .  S
O620        C627   1.294   1_565  A
O621       Ni624   1.883       .  S
O621        C898   1.268       .  A
O622       Ni624   1.860       .  S
O622        C897   1.263       .  A
Ni623      Ni896   2.379   1_545  S
Ni624       O892   1.984       .  S
Ni624      Ni895   2.376       .  S
C625        O894   1.265       .  A
C625        C940   1.479       .  S
C626        O893   1.267       .  A
C626        C953   1.501       .  S
C627        C711   1.499       .  S
C628        O890   1.265       .  A
C628        C728   1.481       .  S
O629       Ni637   1.960       .  S
O629        C639   1.292       .  A
O630       Ni637   1.967       .  S
O630        C640   1.293       .  A
O631       Ni637   1.902       .  S
O631        C641   1.277       .  A
O632       Ni637   1.888       .  S
O632        C642   1.272       .  A
O633       Ni638   1.950       .  S
O633        C642   1.291       .  A
O634       Ni638   1.966       .  S
O634        C641   1.293       .  A
O635       Ni638   1.900       .  S
O635        C640   1.273       .  A
O636       Ni638   1.864       .  S
O636        C639   1.267       .  A
Ni637      Ni638   2.380       .  S
C639        C671   1.476       .  S
C640        C678   1.497       .  S
C641        C658   1.508       .  S
C642        C781   1.496       .  S
O643       Ni651   1.959       .  S
O643        C653   1.292       .  A
O644       Ni651   1.962       .  S
O644        C654   1.294       .  A
O645       Ni651   1.893       .  S
O645        C655   1.273       .  A
O646       Ni651   1.872       .  S
O646        C656   1.268   1_655  A
O648       Ni652   1.975   1_655  S
O648        C655   1.294       .  A
O649       Ni652   1.887       .  S
O649        C654   1.271   1_455  A
O650       Ni652   1.864       .  S
O650        C653   1.268   1_455  A
Ni651      Ni652   2.380   1_655  S
C653        C691   1.490   1_655  S
C654        C701   1.497       .  S
C655        C661   1.501       .  S
C656        C721   1.481       .  S
C657        C658   1.408       .  A
C657        C662   1.400       .  A
C657        H664   1.083       .  S
C658        C659   1.420       .  A
C659        C660   1.420       .  A
C659       Br666   1.918       .  S
C660        C661   1.411       .  A
C660        H665   1.083       .  S
C661        C662   1.413       .  A
C662       Br663   1.923       .  S
C667        C944   1.404   1_455  A
C667        H674   1.085       .  S
C668        C897   1.491       .  S
C668        C669   1.432       .  A
C669        C670   1.398       .  A
C669       Br676   1.927       .  S
C670        H675   1.084       .  S
C671        C672   1.418       .  A
C672        C939   1.400   1_655  A
C672       Br945   1.922       .  S
Br673       C944   1.919       .  S
C677        C678   1.399       .  A
C677        C682   1.410       .  A
C677        H684   1.084       .  S
C678        C679   1.419       .  A
C679        C952   1.405       .  A
C679       Br958   1.915       .  S
C680        C951   1.408       .  A
C680        C953   1.403   1_545  A
C680        H685   1.083       .  S
C681        C898   1.505       .  S
C681        C952   1.401       .  A
C681        C682   1.428       .  A
C682       Br683   1.922       .  S
Br686       C951   1.919       .  S
C687        C964   1.398   1_545  A
C687        H694   1.083       .  S
C688        C961   1.398   1_545  A
C689        C960   1.399       .  A
C689        C690   1.395       .  A
C689       Br696   1.920       .  S
C690        H695   1.082       .  S
C691        C692   1.406   1_455  A
C692        C959   1.398       .  A
C692       Br693   1.919       .  S
C697        C698   1.399       .  A
C697        C702   1.407       .  A
C697        H704   1.084       .  S
C699        C700   1.403       .  A
C699       Br706   1.919       .  S
C700        C701   1.402       .  A
C700        H705   1.083       .  S
C702       Br703   1.921       .  S
C707        C708   1.403       .  A
C707        C712   1.399       .  A
C707        H714   1.084       .  S
C708        C709   1.416       .  A
C709        C710   1.415       .  A
C709       Br716   1.917       .  S
C710        C711   1.409       .  A
C710        H715   1.083   1_545  S
C711        C712   1.419       .  A
C712       Br713   1.925       .  S
C717        C722   1.403   1_556  A
C717        H724   1.082       .  S
C718        C719   1.420   1_556  A
C719        C720   1.402       .  A
C719       Br726   1.922   1_554  S
C720        H725   1.083       .  S
C721        C722   1.419   1_455  A
C722       Br723   1.919       .  S
C727        C728   1.398       .  A
C727        C732   1.403       .  A
C727        H734   1.084       .  S
C728       C1001   1.420       .  A
C729       C1000   1.416       .  A
C729       C1002   1.403       .  A
C729       Br736   1.920   1_565  S
C730       C1001   1.402       .  A
C730        C731   1.396       .  A
C730       H1007   1.083       .  S
C731        C732   1.420       .  A
C732       Br733   1.921       .  S
H735       C1002   1.083       .  S
C737        C738   1.416       .  A
C737        C742   1.401       .  A
C737        H744   1.084       .  S
C738        C739   1.411       .  A
C739        C740   1.418       .  A
C739       Br746   1.914       .  S
C740        C741   1.415       .  A
C740        H745   1.083       .  S
C741        C742   1.402       .  A
C742       Br743   1.919       .  S
C747        C752   1.398   1_556  A
C747        H754   1.084       .  S
C748        C749   1.419   1_455  A
C749        C750   1.399   1_556  A
C749       Br756   1.918       .  S
C750        H755   1.082       .  S
C751        C752   1.419       .  A
C752       Br753   1.923       .  S
C757        C762   1.399       .  A
C757        H764   1.084       .  S
C758        C759   1.398       .  A
C759       C1032   1.392       .  A
C759       Br766   1.921       .  S
C760       C1031   1.392   1_545  A
C760        H765   1.083       .  S
C761       C1034   1.405   1_445  A
C762       C1033   1.404   1_655  A
C762       Br763   1.918       .  S
C767        C768   1.413       .  A
C767        C772   1.406       .  A
C767        H774   1.084       .  S
C769        C770   1.401       .  A
C769       Br776   1.918       .  S
C770        C771   1.419   1_455  A
C770        H775   1.084       .  S
C772       Br773   1.918       .  S
C777        C778   1.417       .  A
C777        C782   1.392       .  A
C777       H1056   1.083       .  S
C778        C779   1.406       .  A
C779        C780   1.410       .  A
C779       Br786   1.917       .  S
C780        C781   1.422       .  A
C780        H785   1.083       .  S
C781        C782   1.406       .  A
C782      Br1055   1.923       .  S
Br783      C1054   1.909   1_545  S
H784       C1049   1.084       .  S
C787       C1064   1.406       .  A
C787        H794   1.083       .  S
C788        C827   1.477       .  S
C788        C789   1.419       .  A
C789        C790   1.394   1_655  A
C789       Br796   1.925       .  S
C790        H795   1.083       .  S
C791        C792   1.415       .  A
C792       C1059   1.404       .  A
C792      Br1065   1.918       .  S
Br793      C1064   1.920       .  S
C797        C798   1.410       .  A
C797        C802   1.409       .  A
C797        H804   1.085       .  S
C798        C799   1.404       .  A
C799       C1072   1.407       .  A
C799      Br1078   1.916       .  S
C800       C1071   1.404       .  A
C800       C1073   1.419       .  A
C800        H805   1.084       .  S
C801        C828   1.503       .  S
C801       C1072   1.416       .  A
C801        C802   1.415       .  A
C802       Br803   1.919       .  S
Br806      C1071   1.918       .  S
C807        C808   1.396       .  A
C807        C812   1.406       .  A
C807        H814   1.083       .  S
C808        C809   1.420       .  A
C809        C810   1.405       .  A
C809       Br816   1.919       .  S
C810        C811   1.399       .  A
C810        H815   1.082   1_545  S
C811        C812   1.428       .  A
C812       Br813   1.924       .  S
O817       Ni825   1.967       .  S
O817        C827   1.294       .  A
O818       Ni825   1.968       .  S
O818        C828   1.294       .  A
O819       Ni825   1.880       .  S
O819        C829   1.268       .  A
O820       Ni825   1.851       .  S
O821       Ni826   1.959       .  S
O821        C830   1.292       .  A
O822        C829   1.299       .  A
O823       Ni826   1.885       .  S
O824       Ni826   1.861       .  S
C829       C1083   1.506       .  S
C830       C1050   1.472       .  S
O831       Ni839   1.965       .  S
O831        C841   1.294       .  A
O832       Ni839   1.971       .  S
O832        C842   1.295       .  A
O833       Ni839   1.895       .  S
O833        C843   1.272       .  A
O834       Ni839   1.868       .  S
O834        C844   1.266   1_655  A
O835       Ni840   1.969       .  S
O835        C844   1.295       .  A
O836       Ni840   1.977   1_655  S
O836        C843   1.296       .  A
O837       Ni840   1.883       .  S
O837        C842   1.271   1_455  A
O838       Ni840   1.853       .  S
O838        C841   1.265   1_455  A
Ni839      Ni840   2.377   1_655  S
C841       C1033   1.487   1_655  S
C842       C1043   1.509       .  S
C843       C1080   1.503       .  S
C844       C1020   1.484       .  S
O845       Ni853   1.954       .  S
O845        C855   1.292       .  A
O846       Ni853   1.955       .  S
O846        C856   1.291       .  A
O847       Ni853   1.884       .  S
O847        C857   1.273       .  A
O848       Ni853   1.880       .  S
O848        C858   1.269       .  A
O849       Ni854   1.960       .  S
O849        C858   1.293       .  A
O850       Ni854   1.985       .  S
O850        C857   1.297       .  A
O851       Ni854   1.900       .  S
O851        C856   1.275       .  A
O852       Ni854   1.865       .  S
O852        C855   1.266       .  A
Ni853      Ni854   2.381       .  S
C855       C1063   1.466       .  S
C856       C1070   1.493       .  S
C857       C1010   1.512       .  S
C858       C1003   1.481       .  S
O859       Ni867   1.948       .  S
O859        C869   1.289       .  A
O860       Ni867   1.960       .  S
O860        C870   1.293       .  A
O861       Ni867   1.903       .  S
O861        C871   1.275       .  A
O862       Ni867   1.894       .  S
O862        C872   1.273       .  A
O864       Ni868   1.969       .  S
O864        C871   1.293       .  A
O865       Ni868   1.898       .  S
O865        C870   1.275       .  A
O866       Ni868   1.866       .  S
O866        C869   1.269       .  A
Ni867      Ni868   2.382       .  S
C869       C1030   1.471       .  S
C870       C1040   1.506       .  S
C871       C1013   1.495       .  S
C872        C990   1.492       .  S
O873       Ni881   1.956       .  S
O873        C883   1.291       .  A
O874       Ni881   1.958       .  S
O874        C884   1.292       .  A
O875       Ni881   1.894       .  S
O875        C885   1.274       .  A
O876       Ni881   1.881       .  S
O876        C886   1.269       .  A
O877       Ni882   1.965       .  S
O877        C886   1.294       .  A
O878       Ni882   1.977       .  S
O878        C885   1.295       .  A
O879       Ni882   1.896       .  S
O879        C884   1.273       .  A
O880       Ni882   1.858       .  S
O880        C883   1.268       .  A
Ni881      Ni882   2.382       .  S
C883        C960   1.477       .  S
C884        C970   1.490       .  S
C885        C980   1.503       .  S
C886       C1023   1.489       .  S
O887       Ni895   1.970       .  S
O887        C897   1.296       .  A
O888       Ni895   1.973       .  S
O888        C898   1.297       .  A
O889       Ni895   1.891       .  S
O889        C899   1.271       .  A
O890       Ni895   1.860       .  S
O891       Ni896   1.962       .  S
O891        C900   1.292       .  A
O892        C899   1.297       .  A
O893       Ni896   1.873       .  S
O894       Ni896   1.858       .  S
C899        C983   1.514       .  S
C900       C1000   1.474       .  S
O901       Ni909   1.952       .  S
O901        C911   1.291       .  A
O902       Ni909   1.954       .  S
O902        C912   1.292       .  A
O903       Ni909   1.885       .  S
O903        C913   1.273       .  A
O904       Ni909   1.880       .  S
O904        C914   1.269       .  A
O905       Ni910   1.963       .  S
O905        C914   1.294       .  A
O906       Ni910   1.988       .  S
O906        C913   1.298       .  A
O907       Ni910   1.899       .  S
O907        C912   1.272       .  A
O908       Ni910   1.864       .  S
O908        C911   1.267       .  A
Ni909      Ni910   2.378       .  S
C911        C943   1.461       .  S
C912        C950   1.492       .  S
C913        C930   1.523       .  S
C914       C1053   1.480       .  S
O915       Ni923   1.956       .  S
O915        C925   1.292   1_655  A
O916       Ni923   1.959       .  S
O916        C926   1.294       .  A
O917       Ni923   1.901       .  S
O917        C927   1.275       .  A
O918       Ni923   1.880       .  S
O918        C928   1.269   1_655  A
O920       Ni924   1.978       .  S
O920        C927   1.294   1_455  A
O921       Ni924   1.888       .  S
O921        C926   1.270   1_455  A
O922       Ni924   1.860       .  S
O922        C925   1.268       .  A
Ni923      Ni924   2.380   1_655  S
C925        C963   1.487       .  S
C926        C973   1.497       .  S
C927        C933   1.503       .  S
C928        C993   1.490       .  S
C929        C930   1.417       .  A
C929        C934   1.400       .  A
C929        H936   1.081       .  S
C930        C931   1.421       .  A
C931        C932   1.426       .  A
C931       Br938   1.917       .  S
C932        C933   1.414       .  A
C932        H937   1.081       .  S
C933        C934   1.405       .  A
C934       Br935   1.922       .  S
C939        H946   1.083       .  S
C940        C941   1.422       .  A
C941        C942   1.391       .  A
C941       Br948   1.927       .  S
C942        H947   1.086       .  S
C943        C944   1.415       .  A
C949        C950   1.394       .  A
C949        C954   1.400       .  A
C949        H956   1.083       .  S
C950        C951   1.422   1_565  A
C952        H957   1.084       .  S
C953        C954   1.428       .  A
C954       Br955   1.926       .  S
C959        H966   1.083       .  S
C961        C962   1.394       .  A
C961       Br968   1.919   1_565  S
C962        H967   1.082       .  S
C963        C964   1.406   1_455  A
C964       Br965   1.920       .  S
C969        C970   1.399       .  A
C969        C974   1.407       .  A
C969        H976   1.083       .  S
C971        C972   1.402       .  A
C971       Br978   1.921       .  S
C972        C973   1.401       .  A
C972        H977   1.083       .  S
C974       Br975   1.922       .  S
C979        C980   1.402       .  A
C979        C984   1.402       .  A
C979        H986   1.085       .  S
C980        C981   1.418       .  A
C981        C982   1.422       .  A
C981       Br988   1.917       .  S
C982        C983   1.412       .  A
C982        H987   1.084       .  S
C983        C984   1.424       .  A
C984       Br985   1.926       .  S
C989        C994   1.407   1_556  A
C989        H996   1.082       .  S
C990        C991   1.421       .  A
C991        C992   1.404   1_556  A
C991       Br998   1.923       .  S
C992        H997   1.083       .  S
C993        C994   1.420   1_455  A
C994       Br995   1.921       .  S
C999       C1000   1.396       .  A
C999       C1004   1.399       .  A
C999       H1006   1.084       .  S
C1001     Br1008   1.918       .  S
C1002      C1003   1.398       .  A
C1003      C1004   1.421       .  A
C1004     Br1005   1.922       .  S
C1009      C1010   1.417       .  A
C1009      C1014   1.401       .  A
C1009      H1016   1.084       .  S
C1010      C1011   1.412       .  A
C1011      C1012   1.420       .  A
C1011     Br1018   1.915       .  S
C1012      C1013   1.416       .  A
C1012      H1017   1.083       .  S
C1013      C1014   1.401       .  A
C1014     Br1015   1.918       .  S
C1019      C1024   1.401   1_556  A
C1019      H1026   1.084       .  S
C1020      C1021   1.422   1_455  A
C1021      C1022   1.405   1_556  A
C1021     Br1028   1.922       .  S
C1022      H1027   1.083       .  S
C1023      C1024   1.423       .  A
C1024     Br1025   1.924       .  S
C1029      C1034   1.399       .  A
C1029      H1036   1.084       .  S
C1030      C1031   1.399       .  A
C1031     Br1038   1.921       .  S
C1032      H1037   1.083       .  S
C1034     Br1035   1.918   1_565  S
C1039      C1040   1.418       .  A
C1039      C1044   1.409       .  A
C1039      H1046   1.083       .  S
C1041      C1042   1.405       .  A
C1041     Br1048   1.921       .  S
C1042      C1043   1.420   1_455  A
C1042      H1047   1.083       .  S
C1044     Br1045   1.918       .  S
C1049      C1050   1.410       .  A
C1049      C1054   1.400       .  A
C1050      C1051   1.404       .  A
C1051      C1052   1.400       .  A
C1051     Br1058   1.919       .  S
C1052      C1053   1.410       .  A
C1052      H1057   1.084       .  S
C1053      C1054   1.403       .  A
C1059      H1066   1.083       .  S
C1060      C1061   1.423       .  A
C1061      C1062   1.391   1_655  A
C1061     Br1068   1.927       .  S
C1062      H1067   1.084       .  S
C1063      C1064   1.417       .  A
C1069      C1070   1.411   1_545  A
C1069      C1074   1.406       .  A
C1069      H1076   1.085       .  S
C1070      C1071   1.404       .  A
C1072      H1077   1.084       .  S
C1073      C1074   1.413   1_565  A
C1074     Br1075   1.919       .  S
C1079      C1080   1.397       .  A
C1079      C1084   1.409       .  A
C1079      H1086   1.083       .  S
C1080      C1081   1.425       .  A
C1081      C1082   1.412       .  A
C1081     Br1088   1.918       .  S
C1082      C1083   1.399       .  A
C1082      H1087   1.082       .  S
C1083      C1084   1.429       .  A
C1084     Br1085   1.922       .  S
