geometry optimzed in LAMMPS
_audit_creation_date              2020-12-01 
_audit_creation_method            'lammps2cif' 
_symmetry_space_group_name_H-M    'P1' 
_symmetry_Int_Tables_number       1 
_symmetry_cell_setting            triclinic 
loop_ 
_symmetry_equiv_pos_as_xyz 
  x,y,z 
_cell_length_a                    55.12231285 
_cell_length_b                    55.07102043957142 
_cell_length_c                    34.23682433244486 
_cell_angle_alpha                 89.99565469168125 
_cell_angle_beta                  89.98134907929192 
_cell_angle_gamma                 90.0042227986174 
loop_ 
_atom_site_label 
_atom_site_type_symbol 
_atom_site_fract_x 
_atom_site_fract_y 
_atom_site_fract_z 
_atom_site_charge 
O1          O  0.83453786  0.22851925  0.48936140    -0.53000
C2          C  0.83431344  0.22035903  0.10359061     0.79600
O3          O  0.79200998  0.16799935  0.01381461    -0.54200
C4          C  0.83685887  0.21614206  0.45848433     0.79600
C5          C  0.85874455  0.15332673  0.04955083     0.82000
Cd6        Cd  0.82726665  0.19341033  0.03244923     1.37500
O7          O  0.84737544  0.22436289  0.07391117    -0.53000
O8          O  0.86632803  0.17202551  0.03197651    -0.51800
C9          C  0.77668549  0.18492943  0.01756947     0.81900
O10         O  0.83643798  0.15255377  0.05798739    -0.54200
O11         O  0.81789593  0.20448863  0.10024875    -0.52700
O12         O  0.83625831  0.19330371  0.46191320    -0.52700
O13         O  0.78446781  0.20517017  0.02957254    -0.51800
O14         O  0.84739123  0.24638422  0.32389787    -0.53000
C15         C  0.83693058  0.25464587  0.20849740     0.79600
O16         O  0.79226306  0.30292281  0.26370461    -0.54200
C17         C  0.83434874  0.25043572  0.35358049     0.79600
C18         C  0.85904552  0.31738603  0.29969925     0.82000
Cd19       Cd  0.82742190  0.27742487  0.28246207     1.37500
O20         O  0.83456115  0.24228362  0.23938249    -0.53000
O21         O  0.86660287  0.29860861  0.28232182    -0.51800
C22         C  0.77686863  0.28606704  0.26761142     0.81900
O23         O  0.83670338  0.31830089  0.30785037    -0.54200
O24         O  0.83641468  0.27748666  0.21191472    -0.52700
O25         O  0.81799637  0.26637313  0.35025109    -0.52700
O26         O  0.78456946  0.26582989  0.27976818    -0.51800
O27         O  0.64778098  0.22883310  0.01709862    -0.53000
C28         C  0.64788220  0.22082774  0.40286857     0.79600
O29         O  0.68997095  0.16820977  0.49261033    -0.54200
C30         C  0.64526634  0.21642318  0.04790358     0.79600
C31         C  0.62345806  0.15363130  0.45636431     0.82000
Cd32       Cd  0.65483168  0.19374344  0.47388723     1.37500
O33         O  0.63466632  0.22466018  0.43242858    -0.53000
O34         O  0.61577740  0.17229099  0.47393651    -0.51800
C35         C  0.70536655  0.18507698  0.48885319     0.81900
O36         O  0.64579257  0.15292400  0.44811461    -0.54200
O37         O  0.66440934  0.20508148  0.40629378    -0.52700
O38         O  0.64563375  0.19358670  0.04436777    -0.52700
O39         O  0.69767289  0.20534602  0.47682429    -0.51800
O40         O  0.63489099  0.24667120  0.18253816    -0.53000
C41         C  0.64537273  0.25505221  0.29791524     0.79600
O42         O  0.69021819  0.30307600  0.24266269    -0.54200
C43         C  0.64796444  0.25062951  0.15285542     0.79600
C44         C  0.62355907  0.31771850  0.20636128     0.82000
Cd45       Cd  0.65499628  0.27767530  0.22388030     1.37500
O46         O  0.64773950  0.24262852  0.26709552    -0.53000
O47         O  0.61593175  0.29905495  0.22398431    -0.51800
C48         C  0.70556047  0.28617013  0.23881195     0.81900
O49         O  0.64589328  0.31849156  0.19811746    -0.54200
O50         O  0.64593386  0.27788606  0.29439118    -0.52700
O51         O  0.66440595  0.26647859  0.15616188    -0.52700
O52         O  0.69780361  0.26595028  0.22667279    -0.51800
O53         O  0.98432043  0.89190444  0.11400344    -0.53000
C54         C  0.97618563  0.89213209  0.22821780     0.79600
O55         O  0.92387146  0.93446755  0.13838220    -0.54200
C56         C  0.97196064  0.88957028  0.08312853     0.79600
C57         C  0.90912871  0.86778595  0.17443649     0.82000
Cd58       Cd  0.94923459  0.89919670  0.15711306     1.37500
O59         O  0.98007403  0.87897196  0.19860580    -0.53000
O60         O  0.92777657  0.86014200  0.15682998    -0.58200
C61         C  0.94077153  0.94981698  0.14219523     0.81900
O62         O  0.90840800  0.89012558  0.18278318    -0.54200
O63         O  0.96043100  0.90865591  0.22482229    -0.52700
O64         O  0.94914349  0.89017163  0.08656689    -0.52700
O65         O  0.96097877  0.94204257  0.15428230    -0.51800
O66         O  0.00214769  0.87908563  0.44846882    -0.53000
C67         C  0.01045932  0.88951736  0.33309393     0.79600
O68         O  0.05853269  0.93436822  0.38813001    -0.54200
C69         C  0.00622525  0.89209228  0.47818921     0.79600
C70         C  0.07321531  0.86754520  0.42420961     0.82000
Cd71       Cd  0.03318979  0.89909791  0.40704200     1.37500
O72         O  0.99810803  0.89170521  0.36401945    -0.53000
O73         O  0.05457054  0.85998762  0.40651360    -0.51800
C74         C  0.04164583  0.94972213  0.39203647     0.81900
O75         O  0.07396462  0.88985835  0.43273238    -0.54200
O76         O  0.03327562  0.89023557  0.33646401    -0.52700
O77         O  0.02217525  0.90843890  0.47488366    -0.52700
O78         O  0.02146699  0.94195516  0.40428108    -0.51800
O79         O  0.98431220  0.07913070  0.14117628    -0.53000
C80         C  0.97611931  0.07877775  0.02700840     0.79600
O81         O  0.92386968  0.03653548  0.11709105    -0.54200
C82         C  0.97195658  0.08145417  0.17207036     0.79600
C83         C  0.90908361  0.10315325  0.08093548     0.82000
Cd84       Cd  0.94921466  0.07178355  0.09817640     1.37500
O85         O  0.98004546  0.09195421  0.05658547    -0.53000
O86         O  0.92774369  0.11082872  0.09845818    -0.51800
C87         C  0.94076639  0.02118421  0.11327183     0.81900
O88         O  0.90838044  0.08081181  0.07260068    -0.54200
O89         O  0.96035145  0.06226860  0.03047354    -0.52700
O90         O  0.94913932  0.08083432  0.16867938    -0.52700
O91         O  0.96096418  0.02894652  0.10109736    -0.51800
O92         O  0.00221395  0.09194360  0.30663949    -0.53000
C93         C  0.01030030  0.08131483  0.42203003     0.79600
O94         O  0.05843435  0.03646636  0.36696052    -0.54200
C95         C  0.00616741  0.07884690  0.27697661     0.79600
C96         C  0.07322555  0.10303199  0.33091917     0.82000
Cd97       Cd  0.03305415  0.07169628  0.34810552     1.37500
O98         O  0.99793484  0.07870417  0.39121973    -0.53000
O99         O  0.05456956  0.11072175  0.34845717    -0.51800
C100        C  0.04156754  0.02108823  0.36308584     0.81900
O101        O  0.07389939  0.08069544  0.32254254    -0.54200
O102        O  0.03311955  0.08099991  0.41853566    -0.52700
O103        O  0.02195673  0.06235436  0.28033542    -0.52700
O104        O  0.02136758  0.02882835  0.35091236    -0.51800
O105        O  0.98046537  0.37840997  0.30728157    -0.53000
C106        C  0.97232985  0.38907741  0.42270082     0.79600
O107        O  0.92421151  0.43397127  0.36738658    -0.54200
C108        C  0.97665309  0.39160128  0.27768155     0.79600
C109        C  0.90948613  0.36741022  0.33136613     0.82000
Cd110      Cd  0.94964772  0.39872782  0.34873838     1.37500
O111        O  0.98471201  0.39153998  0.39186293    -0.53000
O112        O  0.92807626  0.35972042  0.34906673    -0.51800
C113        C  0.94111079  0.44933727  0.36372966     0.81900
O114        O  0.90886438  0.38973951  0.32292858    -0.54200
O115        O  0.94951294  0.38955636  0.41922834    -0.52700
O116        O  0.96096291  0.40818652  0.28107927    -0.52700
O117        O  0.96136301  0.44158520  0.35178131    -0.51800
O118        O  0.99845779  0.39133670  0.14190024    -0.53000
C119        C  0.00654891  0.39159893  0.02761571     0.79600
O120        O  0.05878991  0.43397853  0.11740370    -0.54200
C121        C  0.01085258  0.38897315  0.17273208     0.79600
C122        C  0.07364416  0.36732311  0.08138605     0.82000
Cd123      Cd  0.03349179  0.39864868  0.09871932     1.37500
O124        O  0.00263796  0.37844223  0.05722848    -0.53000
O125        O  0.05495407  0.35960324  0.09879570    -0.51800
C126        C  0.04185484  0.44928893  0.11360788     0.81900
O127        O  0.07437247  0.38968987  0.07322587    -0.54200
O128        O  0.02232652  0.40810225  0.03101050    -0.52700
O129        O  0.03366616  0.38955413  0.16923042    -0.52700
O130        O  0.02165474  0.44146443  0.10157148    -0.51800
O131        O  0.98036852  0.59134476  0.44862649    -0.53000
C132        C  0.97190016  0.58099715  0.33320489     0.79600
O133        O  0.92396550  0.53603178  0.38873777    -0.54200
C134        C  0.97622901  0.57838288  0.47838192     0.79600
C135        C  0.90924798  0.60295346  0.42444268     0.82000
Cd136      Cd  0.94927222  0.57140339  0.40726043     1.37500
O137        O  0.98428295  0.57889331  0.36410008    -0.53000
O138        O  0.92794442  0.61054066  0.40690067    -0.51800
C139        C  0.94092608  0.52074139  0.39245310     0.81900
O140        O  0.90844735  0.58061612  0.43279118    -0.54200
O141        O  0.94908889  0.58019057  0.33664661    -0.52700
O142        O  0.96021455  0.56209858  0.47512692    -0.52700
O143        O  0.96113654  0.52859249  0.40439603    -0.51800
O144        O  0.99813548  0.57861339  0.11417462    -0.53000
C145        C  0.00618636  0.57837392  0.22830384     0.79600
O146        O  0.05861568  0.53606768  0.13843704    -0.54200
C147        C  0.01049580  0.58088584  0.08327541     0.79600
C148        C  0.07332610  0.60271782  0.17448947     0.82000
Cd149      Cd  0.03321573  0.57130303  0.15724277     1.37500
O150        O  0.00239316  0.59159004  0.19872536    -0.53000
O151        O  0.05469703  0.61034783  0.15683430    -0.51800
C152        C  0.04174507  0.52069092  0.14232183     0.81900
O153        O  0.07401445  0.58039507  0.18296191    -0.54200
O154        O  0.02188380  0.56179471  0.22489611    -0.52700
O155        O  0.03331126  0.58023771  0.08667909    -0.52700
O156        O  0.02153777  0.52843503  0.15447929    -0.51800
O157        O  0.83471069  0.74228001  0.26659326    -0.53000
C158        C  0.83456843  0.75043672  0.15231426     0.79600
O159        O  0.79230389  0.80273993  0.24237077    -0.54200
C160        C  0.83713591  0.75466792  0.29743576     0.79600
C161        C  0.85894792  0.81750665  0.20615354     0.82000
Cd162      Cd  0.82753796  0.77738594  0.22345922     1.37500
O163        O  0.84755643  0.74634628  0.18203517    -0.53000
O164        O  0.86660387  0.79879685  0.22360977    -0.51800
C165        C  0.77696110  0.78584446  0.23841558     0.81900
O166        O  0.83661248  0.81826852  0.19794378    -0.54200
O167        O  0.81823085  0.76639137  0.15562080    -0.52700
O168        O  0.83665128  0.77750651  0.29396025    -0.52700
O169        O  0.78472330  0.76565098  0.22617209    -0.51800
O170        O  0.84777619  0.72427863  0.43193710    -0.53000
C171        C  0.83717971  0.71616375  0.04738878     0.79600
O172        O  0.79250955  0.66786507  0.49239389    -0.54200
C173        C  0.83459758  0.72039153  0.40236520     0.79600
C174        C  0.85908091  0.65327699  0.45606185     0.82000
Cd175      Cd  0.82763862  0.69336297  0.47345507     1.37500
O176        O  0.83476254  0.72852263  0.01651211    -0.53000
O177        O  0.86669843  0.67193417  0.47370377    -0.51800
C178        C  0.77710225  0.68470402  0.48848007     0.81900
O179        O  0.83676749  0.65254966  0.44769107    -0.54200
O180        O  0.83671027  0.69332254  0.04396743    -0.52700
O181        O  0.81810420  0.70460566  0.40579978    -0.52700
O182        O  0.78478361  0.70493503  0.47625279    -0.51800
O183        O  0.64800008  0.74188955  0.23916452    -0.53000
C184        C  0.64810920  0.75007887  0.35333389     0.79600
O185        O  0.69025687  0.80257808  0.26341606    -0.54200
C186        C  0.64559098  0.75422726  0.20826415     0.79600
C187        C  0.62362543  0.81716550  0.29943588     0.82000
Cd188      Cd  0.65509409  0.77707077  0.28219466     1.37500
O189        O  0.63495397  0.74615940  0.32374546    -0.53000
O190        O  0.61604267  0.79852178  0.28171738    -0.51800
C191        C  0.70564394  0.78571219  0.26723689     0.81900
O192        O  0.64591807  0.81787610  0.30795196    -0.54200
O193        O  0.66457967  0.76588790  0.34990181    -0.52700
O194        O  0.64605357  0.77707158  0.21165205    -0.52700
O195        O  0.69793632  0.76546282  0.27933856    -0.51800
O196        O  0.63519851  0.72398551  0.07366074    -0.53000
C197        C  0.64562551  0.71573723  0.45822397     0.79600
O198        O  0.69046238  0.66760554  0.01341139    -0.54200
C199        C  0.64818562  0.71988137  0.10337675     0.79600
C200        C  0.62364164  0.65289668  0.04921743     0.82000
Cd201      Cd  0.65518968  0.69295780  0.03217811     1.37500
O202        O  0.64784453  0.72808948  0.48914501    -0.53000
O203        O  0.61608311  0.67164561  0.03176717    -0.51800
C204        C  0.70578406  0.68452647  0.01730901     0.81900
O205        O  0.64595722  0.65205815  0.05755258    -0.54200
O206        O  0.64632554  0.69289860  0.46159547    -0.52700
O207        O  0.66450502  0.70390800  0.10005843    -0.52700
O208        O  0.69799338  0.70472992  0.02946288    -0.51800
O209        O  0.34740086  0.74645915  0.07279064    -0.53000
C210        C  0.33697754  0.75485666  0.45740385     0.79600
O211        O  0.29217957  0.80290212  0.01252733    -0.54200
C212        C  0.33439659  0.75052158  0.10251524     0.79600
C213        C  0.35898950  0.81751752  0.04879898     0.82000
Cd214      Cd  0.32741326  0.77753316  0.03143016     1.37500
O215        O  0.33459072  0.74245251  0.48824346    -0.53000
O216        O  0.36656499  0.79877829  0.03133562    -0.51800
C217        C  0.27682617  0.78602064  0.01657704     0.81900
O218        O  0.33664741  0.81838973  0.05696909    -0.54200
O219        O  0.33645678  0.77769284  0.46089854    -0.52700
O220        O  0.31805276  0.76647196  0.09923501    -0.52700
O221        O  0.28458238  0.76583972  0.02888162    -0.51800
O222        O  0.33445295  0.72864891  0.23826793    -0.53000
C223        C  0.33444030  0.72058688  0.35248222     0.79600
O224        O  0.29234399  0.66802399  0.26249769    -0.54200
C225        C  0.33701004  0.71626307  0.20745071     0.79600
C226        C  0.35888145  0.65343869  0.29890208     0.82000
Cd227      Cd  0.32745961  0.69352271  0.28144465     1.37500
O228        O  0.34750987  0.72457110  0.32280283    -0.53000
O229        O  0.36654116  0.67213161  0.28139069    -0.51800
C230        C  0.27691959  0.68483459  0.26654532     0.81900
O231        O  0.33654375  0.65268315  0.30711869    -0.54200
O232        O  0.31804748  0.70468805  0.34917769    -0.52700
O233        O  0.33667870  0.69342379  0.21095855    -0.52700
O234        O  0.28458745  0.70505346  0.27883186    -0.51800
O235        O  0.13479110  0.74630823  0.43141720    -0.53000
C236        C  0.14544808  0.75434176  0.04691976     0.79600
O237        O  0.19008483  0.80268313  0.49182313    -0.54200
C238        C  0.14801082  0.75016488  0.40186867     0.79600
C239        C  0.12342883  0.81722595  0.45567416     0.82000
Cd240      Cd  0.15494720  0.77717322  0.47296839     1.37500
O241        O  0.14789861  0.74199310  0.01604075    -0.53000
O242        O  0.11582457  0.79849674  0.47314310    -0.51800
C243        C  0.20549851  0.78585327  0.48784703     0.81900
O244        O  0.14576073  0.81803859  0.44742246    -0.54200
O245        O  0.14587770  0.77718393  0.04349939    -0.52700
O246        O  0.16453387  0.76591621  0.40532597    -0.52700
O247        O  0.19781579  0.76562438  0.47562455    -0.51800
O248        O  0.13493514  0.72405469  0.18150183    -0.53000
C249        C  0.14546632  0.71585231  0.29697833     0.79600
O250        O  0.14589532  0.65223425  0.19749435    -0.54200
C251        C  0.14801758  0.72004939  0.15184606     0.79600
C252        C  0.20559625  0.68465252  0.23788162     0.82000
Cd253      Cd  0.15502044  0.69310546  0.22300974     1.37500
O254        O  0.14775681  0.72822179  0.26608407    -0.53000
O255        O  0.19781083  0.70487761  0.22581731    -0.51800
C256        C  0.12358117  0.65298545  0.20587980     0.81900
O257        O  0.19027500  0.66772268  0.24170280    -0.54200
O258        O  0.14606855  0.69301337  0.29356647    -0.52700
O259        O  0.16442938  0.70417824  0.15522296    -0.52700
O260        O  0.11596584  0.67168387  0.22341461    -0.51800
O261        O  0.33483149  0.22815621  0.26618728    -0.53000
C262        C  0.33462012  0.21986751  0.15202581     0.79600
O263        O  0.33673906  0.15210555  0.19768163    -0.54200
C264        C  0.33719872  0.21581070  0.29708964     0.79600
C265        C  0.27704388  0.18448769  0.23831396     0.82000
Cd266      Cd  0.32759769  0.19297459  0.22322804     1.37500
O267        O  0.34772566  0.22385621  0.18164764    -0.53000
O268        O  0.28477008  0.20465457  0.22588678    -0.51800
C269        C  0.35905116  0.15287604  0.20606082     0.81900
O270        O  0.29241032  0.16762472  0.24237584    -0.54200
O271        O  0.31816526  0.20404013  0.15545713    -0.52700
O272        O  0.33664408  0.19296930  0.29371959    -0.52700
O273        O  0.36664593  0.17157286  0.22361414    -0.51800
O274        O  0.33468227  0.24178012  0.01621878    -0.53000
C275        C  0.33466123  0.25004923  0.40203037     0.79600
O276        O  0.29255252  0.30249086  0.49205835    -0.54200
C277        C  0.33723538  0.25412513  0.04707869     0.79600
C278        C  0.35903345  0.31711125  0.45580465     0.82000
Cd279      Cd  0.32766893  0.27697522  0.47319073     1.37500
O280        O  0.34788489  0.24618197  0.43155691    -0.53000
O281        O  0.36668287  0.29847688  0.47347712    -0.51800
C282        C  0.27715266  0.28563437  0.48824730     0.81900
O283        O  0.33672078  0.31779445  0.44742130    -0.54200
O284        O  0.31810476  0.26575693  0.40555171    -0.52700
O285        O  0.33689542  0.27696939  0.04365366    -0.52700
O286        O  0.28483507  0.26538278  0.47612233    -0.51800
O287        O  0.13524466  0.22418065  0.32381708    -0.53000
C288        C  0.14568936  0.21596107  0.20845261     0.79600
O289        O  0.19035280  0.16774239  0.26320571    -0.54200
C290        C  0.14822494  0.22004869  0.35353158     0.79600
C291        C  0.12365652  0.15312869  0.29951736     0.82000
Cd292      Cd  0.15521317  0.19314609  0.28235397     1.37500
O293        O  0.14815364  0.22832076  0.23931710    -0.53000
O294        O  0.11608526  0.17188608  0.28210248    -0.51800
C295        C  0.20576017  0.18455987  0.26736270     0.81900
O296        O  0.14598443  0.15226712  0.30776204    -0.54200
O297        O  0.14610493  0.19311957  0.21188091    -0.52700
O298        O  0.16453811  0.20406978  0.35020528    -0.52700
O299        O  0.19807617  0.20472793  0.27984254    -0.51800
O300        O  0.14829176  0.24193210  0.48930347    -0.53000
C301        C  0.14834572  0.25017641  0.10349383     0.79600
O302        O  0.19048339  0.30253610  0.01321851    -0.54200
C303        C  0.14571440  0.25429474  0.45846451     0.79600
C304        C  0.12393034  0.31717415  0.04968033     0.82000
Cd305      Cd  0.15535621  0.27709829  0.03233580     1.37500
O306        O  0.13530535  0.24612490  0.07382062    -0.53000
O307        O  0.11629627  0.29847622  0.03216995    -0.51800
C308        C  0.20588024  0.28569672  0.01722038     0.81900
O309        O  0.14626008  0.31794883  0.05793012    -0.54200
O310        O  0.16474113  0.26606942  0.10012521    -0.52700
O311        O  0.14607502  0.27713714  0.46190673    -0.52700
O312        O  0.19819415  0.26549851  0.02957717    -0.51800
O313        O  0.50216606  0.59169391  0.05622060    -0.53000
C314        C  0.51028309  0.58105682  0.17168767     0.79600
O315        O  0.55838737  0.53618259  0.11634705    -0.54200
C316        C  0.50605644  0.57854293  0.02659846     0.79600
C317        C  0.57319200  0.60278740  0.08051205     0.82000
Cd318      Cd  0.53300795  0.57145181  0.09770292     1.37500
O319        O  0.49792476  0.57873776  0.14080917    -0.53000
O320        O  0.55455981  0.61046430  0.09812847    -0.51800
C321        C  0.54148263  0.52083530  0.11258482     0.81900
O322        O  0.57383621  0.58046399  0.07204638    -0.54200
O323        O  0.53310020  0.58044981  0.16825526    -0.52700
O324        O  0.52181759  0.56202481  0.02998041    -0.52700
O325        O  0.52125749  0.52861225  0.10058159    -0.51800
O326        O  0.48413065  0.57893639  0.39080810    -0.53000
C327        C  0.47600371  0.57855842  0.27661198     0.79600
O328        O  0.42369635  0.53626310  0.36645880    -0.54200
C329        C  0.47177806  0.58116226  0.42172381     0.79600
C330        C  0.40900118  0.60309275  0.33057606     0.82000
Cd331      Cd  0.44904942  0.57157899  0.34776993     1.37500
O332        O  0.47992468  0.59172505  0.30620243    -0.53000
O333        O  0.42768871  0.61069284  0.34810520    -0.51800
C334        C  0.44063110  0.52094214  0.36273290     0.81900
O335        O  0.40821249  0.58075141  0.32225087    -0.54200
O336        O  0.46020743  0.56207350  0.28004747    -0.52700
O337        O  0.44896126  0.58048380  0.41834123    -0.52700
O338        O  0.46084314  0.52875063  0.35069979    -0.51800
O339        O  0.50228103  0.37849773  0.19804656    -0.53000
C340        C  0.51036672  0.38917999  0.08252464     0.79600
O341        O  0.55841289  0.43411897  0.13773006    -0.54200
C342        C  0.50600424  0.39179587  0.22755170     0.79600
C343        C  0.57323041  0.36769186  0.17414012     0.82000
Cd344      Cd  0.53302256  0.39887121  0.15649960     1.37500
O345        O  0.49797481  0.39165313  0.11334969    -0.53000
O346        O  0.55471128  0.35994088  0.15631292    -0.51800
C347        C  0.54149323  0.44946000  0.14138946     0.81900
O348        O  0.57377177  0.39002618  0.18255068    -0.54200
O349        O  0.53318312  0.38963121  0.08602512    -0.52700
O350        O  0.52160414  0.40845981  0.22405061    -0.52700
O351        O  0.52125881  0.44168933  0.15338764    -0.51800
O352        O  0.48024782  0.37888856  0.44782341    -0.53000
C353        C  0.47182622  0.38925000  0.33252676     0.79600
O354        O  0.40833810  0.38978905  0.43209620    -0.54200
C355        C  0.47615888  0.39184349  0.47760038     0.79600
C356        C  0.44069748  0.44954754  0.39159604     0.82000
Cd357      Cd  0.44917546  0.39891303  0.40653203     1.37500
O358        O  0.48422103  0.39164041  0.36335403    -0.53000
O359        O  0.46084658  0.44180699  0.40399062    -0.51800
C360        C  0.40914768  0.36742396  0.42394882     0.81900
O361        O  0.42386016  0.43416000  0.38748584    -0.54200
O362        O  0.44901258  0.38981437  0.33602954    -0.52700
O363        O  0.46019582  0.40818100  0.47438166    -0.52700
O364        O  0.42785168  0.35978259  0.40649524    -0.51800
O365        O  0.50241752  0.87893283  0.30674332    -0.53000
C366        C  0.51066673  0.88939342  0.42212601     0.79600
O367        O  0.57427799  0.88984648  0.32283645    -0.54200
C368        C  0.50647665  0.89194662  0.27702003     0.79600
C369        C  0.54190712  0.94962760  0.36311967     0.82000
Cd370      Cd  0.53338820  0.89900667  0.34815815     1.37500
O371        O  0.49829391  0.89185102  0.39128988    -0.53000
O372        O  0.52172121  0.94189059  0.35087383    -0.51800
C373        C  0.57341787  0.86747626  0.33094737     0.81900
O374        O  0.55876503  0.93424540  0.36704448    -0.54200
O375        O  0.53348366  0.88986946  0.41864675    -0.52700
O376        O  0.52238080  0.90833733  0.28031890    -0.52700
O377        O  0.55465536  0.85984645  0.34825694    -0.51800
O378        O  0.48027959  0.87864305  0.05661984    -0.53000
C379        C  0.47226312  0.88927106  0.17209947     0.79600
O380        O  0.42406648  0.93404647  0.11734143    -0.54200
C381        C  0.47647674  0.89191080  0.02710216     0.79600
C382        C  0.40937033  0.86756123  0.08067043     0.82000
Cd383      Cd  0.44949198  0.89889911  0.09819931     1.37500
O384        O  0.48461898  0.89184493  0.14125720    -0.53000
O385        O  0.42794602  0.85987828  0.09841951    -0.51800
C386        C  0.44090036  0.94945837  0.11340293     0.81900
O387        O  0.40874112  0.88989481  0.07225810    -0.54200
O388        O  0.44944274  0.88959932  0.16864474    -0.52700
O389        O  0.46080926  0.90850922  0.03060800    -0.52700
O390        O  0.46108498  0.94177344  0.10105758    -0.51800
O391        O  0.48038555  0.09166282  0.19879635    -0.53000
C392        C  0.47229500  0.08095112  0.08335995     0.79600
O393        O  0.42410605  0.03618718  0.13857363    -0.54200
C394        C  0.47651423  0.07850790  0.22842446     0.79600
C395        C  0.40941221  0.10273259  0.17460294     0.82000
Cd396      Cd  0.44955770  0.07138071  0.15734050     1.37500
O397        O  0.48466289  0.07841010  0.11418281    -0.53000
O398        O  0.42805265  0.11041126  0.15700457    -0.51800
C399        C  0.44095545  0.02078965  0.14242136     0.81900
O400        O  0.40874091  0.08039985  0.18300950    -0.54200
O401        O  0.44947663  0.08058414  0.08685588    -0.52700
O402        O  0.46077971  0.06196164  0.22504948    -0.52700
O403        O  0.46117837  0.02850456  0.15454155    -0.51800
O404        O  0.49841496  0.07899927  0.36423258    -0.53000
C405        C  0.50652613  0.07846889  0.47839869     0.79600
O406        O  0.55885821  0.03634071  0.38834109    -0.54200
C407        C  0.51076895  0.08118805  0.33330907     0.79600
C408        C  0.57345105  0.10319681  0.42456401     0.82000
Cd409      Cd  0.53349373  0.07159064  0.40725330     1.37500
O410        O  0.50246592  0.09153737  0.44874089    -0.53000
O411        O  0.55477415  0.11075123  0.40695628    -0.51800
C412        C  0.54196719  0.02098080  0.39218714     0.81900
O413        O  0.57427515  0.08085891  0.43290660    -0.54200
O414        O  0.52245924  0.06211366  0.47502737    -0.52700
O415        O  0.53358515  0.08047490  0.33668441    -0.52700
O416        O  0.52177876  0.02873620  0.40440458    -0.51800
C417        C  0.48369146  0.08285614  0.04578266    -0.08500
C418        C  0.49370888  0.08186888  0.01449989    -0.10000
C419        C  0.48932168  0.08201798  0.26449692    -0.08500
C420        C  0.49934606  0.08306570  0.29575985    -0.10000
C421        C  0.43773152  0.99569176  0.13250192    -0.08500
C422        C  0.43770766  0.97454191  0.12344213    -0.10000
C423        C  0.54508244  0.97473049  0.37309036    -0.08500
C424        C  0.54510595  0.99588058  0.38217220    -0.10000
C425        C  0.49368517  0.88844987  0.24093016    -0.08500
C426        C  0.48367217  0.88739611  0.20965912    -0.10000
C427        C  0.49927568  0.88746768  0.45970255    -0.08500
C428        C  0.48927623  0.88846174  0.49099846    -0.10000
C429        C  0.49899178  0.38728864  0.04493811    -0.08500
C430        C  0.48897814  0.38834036  0.01366573    -0.10000
C431        C  0.49319299  0.38831165  0.26363757    -0.08500
C432        C  0.48319556  0.38731001  0.29493517    -0.10000
C433        C  0.43753799  0.47466199  0.38167909    -0.08500
C434        C  0.43750988  0.49582492  0.37266634    -0.10000
C435        C  0.54466101  0.47456137  0.13144226    -0.08500
C436        C  0.54465491  0.49572313  0.12245205    -0.10000
C437        C  0.49886592  0.58297563  0.20925006    -0.08500
C438        C  0.48882921  0.58198645  0.24051941    -0.10000
C439        C  0.48320319  0.58305034  0.45927092    -0.08500
C440        C  0.49323753  0.58202383  0.49052775    -0.10000
C441        C  0.14487005  0.23739391  0.13960985    -0.08500
C442        C  0.14382685  0.22738811  0.17089834    -0.10000
C443        C  0.14478432  0.23284729  0.38964025    -0.08500
C444        C  0.14378791  0.24286857  0.42091846    -0.10000
C445        C  0.37521454  0.33630657  0.44483613    -0.08500
C446        C  0.39001702  0.35117654  0.43493480    -0.10000
C447        C  0.23094911  0.28889897  0.00723382    -0.08500
C448        C  0.25208397  0.28887959  0.49819355    -0.10000
C449        C  0.39019083  0.11890385  0.18544830    -0.08500
C450        C  0.37529956  0.13371409  0.19522057    -0.10000
C451        C  0.25196719  0.18134377  0.24832022    -0.08500
C452        C  0.23083525  0.18136670  0.25739093    -0.10000
C453        C  0.33911053  0.22725711  0.33462172    -0.08500
C454        C  0.33810897  0.23726861  0.36590751    -0.10000
C455        C  0.33808403  0.23265477  0.11590310    -0.08500
C456        C  0.33911310  0.24267948  0.08462460    -0.10000
C457        C  0.14357076  0.74289829  0.08447187    -0.08500
C458        C  0.14457839  0.73286402  0.11574433    -0.10000
C459        C  0.14458926  0.73732575  0.36579236    -0.08500
C460        C  0.14358251  0.72728083  0.33453346    -0.10000
C461        C  0.38987070  0.61936377  0.31969250    -0.08500
C462        C  0.37507085  0.63424816  0.30985116    -0.10000
C463        C  0.25183948  0.68157359  0.25668777    -0.08500
C464        C  0.23069100  0.68151487  0.24774173    -0.10000
C465        C  0.37528294  0.83661701  0.05976932    -0.08500
C466        C  0.39017452  0.85139590  0.06966923    -0.10000
C467        C  0.25173001  0.78915609  0.00669108    -0.08500
C468        C  0.23058247  0.78910246  0.49772066    -0.10000
C469        C  0.33887921  0.74347164  0.41981468    -0.08500
C470        C  0.33787905  0.73344340  0.38854023    -0.10000
C471        C  0.33888414  0.72766270  0.16986754    -0.08500
C472        C  0.33785453  0.73768891  0.13859207    -0.10000
C473        C  0.59243535  0.61895028  0.06971612    -0.08500
C474        C  0.60735257  0.63375076  0.05999360    -0.10000
C475        C  0.60739465  0.83634386  0.31029637    -0.08500
C476        C  0.59256371  0.85121290  0.32008828    -0.10000
C477        C  0.64474599  0.73270834  0.13947185    -0.08500
C478        C  0.64372675  0.74276508  0.17072586    -0.10000
C479        C  0.64370760  0.72718653  0.42068320    -0.08500
C480        C  0.64468755  0.73723822  0.38942116    -0.10000
C481        C  0.75202636  0.68145933  0.49841721    -0.08500
C482        C  0.73088206  0.68140454  0.00741787    -0.10000
C483        C  0.73072532  0.78894651  0.25732923    -0.08500
C484        C  0.75186988  0.78898474  0.24833189    -0.10000
C485        C  0.83903519  0.74326435  0.33501101    -0.08500
C486        C  0.83803061  0.73323229  0.36628489    -0.10000
C487        C  0.83905474  0.72759692  0.08494274    -0.08500
C488        C  0.83803007  0.73762431  0.11621706    -0.10000
C489        C  0.09250990  0.61893602  0.18532422    -0.08500
C490        C  0.10735967  0.63379277  0.19507390    -0.10000
C491        C  0.89011446  0.61922900  0.43530805    -0.08500
C492        C  0.87529455  0.63409992  0.44513415    -0.10000
C493        C  0.98905478  0.58181118  0.01445801    -0.08500
C494        C  0.99908299  0.58280059  0.04572275    -0.10000
C495        C  0.98329606  0.58288738  0.29562170    -0.08500
C496        C  0.99333687  0.58185724  0.26435960    -0.10000
C497        C  0.09285126  0.35115767  0.07046389    -0.08500
C498        C  0.10771138  0.33633814  0.06061231    -0.10000
C499        C  0.04496668  0.47441326  0.12346710    -0.08500
C500        C  0.04493407  0.49558065  0.13243145    -0.10000
C501        C  0.93789623  0.47444432  0.37362989    -0.08500
C502        C  0.93783431  0.49561199  0.38259941    -0.10000
C503        C  0.98947092  0.38808668  0.24161000    -0.08500
C504        C  0.99948004  0.38705435  0.21032479    -0.10000
C505        C  0.98371646  0.38714674  0.46026916    -0.08500
C506        C  0.99373455  0.38814233  0.49153969    -0.10000
C507        C  0.09246192  0.11919553  0.32010378    -0.08500
C508        C  0.10737083  0.13399406  0.31034699    -0.10000
C509        C  0.98890305  0.08222603  0.49089219    -0.08500
C510        C  0.99890422  0.08322975  0.45960016    -0.10000
C511        C  0.98337284  0.08337601  0.20961356    -0.08500
C512        C  0.99338293  0.08235307  0.24088712    -0.10000
C513        C  0.09235016  0.85126232  0.43504002    -0.08500
C514        C  0.10718401  0.83639245  0.44481304    -0.10000
C515        C  0.04477982  0.97482830  0.38206280    -0.08500
C516        C  0.04475142  0.99598409  0.37302089    -0.10000
C517        C  0.88996595  0.85156328  0.18537526    -0.08500
C518        C  0.87514432  0.83670098  0.19523412    -0.10000
C519        C  0.93761563  0.99608345  0.12325163    -0.08500
C520        C  0.93761690  0.97492709  0.13228378    -0.10000
C521        C  0.99903252  0.88762740  0.29554963    -0.08500
C522        C  0.98900008  0.88865357  0.26429175    -0.10000
C523        C  0.98337458  0.88764649  0.04556089    -0.08500
C524        C  0.99340286  0.88864368  0.01428311    -0.10000
C525        C  0.59244924  0.35159331  0.18525546    -0.08500
C526        C  0.60732440  0.33683394  0.19527321    -0.10000
C527        C  0.60729627  0.13442286  0.44538633    -0.08500
C528        C  0.59253188  0.11951182  0.43550771    -0.10000
C529        C  0.64444904  0.23367525  0.36680317    -0.08500
C530        C  0.64345423  0.24368897  0.33551711    -0.10000
C531        C  0.64340912  0.22779493  0.08550461    -0.08500
C532        C  0.64446807  0.23780293  0.11678836    -0.10000
C533        C  0.89026681  0.35125642  0.32044067    -0.08500
C534        C  0.87535757  0.33648206  0.31059917    -0.10000
C535        C  0.73064597  0.28932819  0.24872953    -0.08500
C536        C  0.75178741  0.28929687  0.25772541    -0.10000
C537        C  0.88987580  0.11933793  0.07009946    -0.08500
C538        C  0.87499606  0.13416194  0.06034977    -0.10000
C539        C  0.75159139  0.18177396  0.00770146    -0.08500
C540        C  0.73044434  0.18181960  0.49873913    -0.10000
C541        C  0.83876996  0.22756134  0.42092508    -0.08500
C542        C  0.83777221  0.23760051  0.38966009    -0.10000
C543        C  0.83778116  0.23317606  0.13967798    -0.08500
C544        C  0.83880611  0.24321225  0.17094358    -0.10000
O545        O  0.83453777  0.22851928  0.98936144    -0.53000
C546        C  0.83431340  0.22035908  0.60359064     0.79600
O547        O  0.79201002  0.16799934  0.51381464    -0.54200
C548        C  0.83685891  0.21614209  0.95848438     0.79600
C549        C  0.85874458  0.15332679  0.54955078     0.82000
Cd550      Cd  0.82726665  0.19341032  0.53244922     1.37500
O551        O  0.84737539  0.22436292  0.57391113    -0.53000
O552        O  0.86632804  0.17202558  0.53197648    -0.51800
C553        C  0.77668553  0.18492942  0.51756946     0.81900
O554        O  0.83643808  0.15255377  0.55798733    -0.54200
O555        O  0.81789588  0.20448865  0.60024871    -0.52700
O556        O  0.83625842  0.19330373  0.96191320    -0.52700
O557        O  0.78446788  0.20517013  0.52957248    -0.51800
O558        O  0.84739119  0.24638424  0.82389788    -0.53000
C559        C  0.83693053  0.25464584  0.70849731     0.79600
O560        O  0.79226307  0.30292286  0.76370479    -0.54200
C561        C  0.83434870  0.25043574  0.85358048     0.79600
C562        C  0.85904553  0.31738603  0.79969920     0.82000
Cd563      Cd  0.82742188  0.27742489  0.78246209     1.37500
O564        O  0.83456111  0.24228365  0.73938244    -0.53000
O565        O  0.86660291  0.29860863  0.78232174    -0.51800
C566        C  0.77686862  0.28606709  0.76761159     0.81900
O567        O  0.83670341  0.31830091  0.80785035    -0.54200
O568        O  0.83641464  0.27748662  0.71191470    -0.52700
O569        O  0.81799634  0.26637315  0.85025108    -0.52700
O570        O  0.78456950  0.26582986  0.77976814    -0.51800
O571        O  0.64778107  0.22883315  0.51709858    -0.53000
C572        C  0.64788226  0.22082769  0.90286845     0.79600
O573        O  0.68997090  0.16820979  0.99261027    -0.54200
C574        C  0.64526638  0.21642323  0.54790359     0.79600
C575        C  0.62345808  0.15363127  0.95636425     0.82000
Cd576      Cd  0.65483167  0.19374345  0.97388724     1.37500
O577        O  0.63466633  0.22466007  0.93242839    -0.53000
O578        O  0.61577743  0.17229099  0.97393644    -0.51800
C579        C  0.70536657  0.18507697  0.98885321     0.81900
O580        O  0.64579260  0.15292403  0.94811465    -0.54200
O581        O  0.66440941  0.20508143  0.90629377    -0.52700
O582        O  0.64563367  0.19358677  0.54436776    -0.52700
O583        O  0.69767289  0.20534604  0.97682425    -0.51800
O584        O  0.63489094  0.24667118  0.68253817    -0.53000
C585        C  0.64537270  0.25505218  0.79791524     0.79600
O586        O  0.69021822  0.30307596  0.74266268    -0.54200
C587        C  0.64796435  0.25062954  0.65285533     0.79600
C588        C  0.62355909  0.31771853  0.70636126     0.82000
Cd589      Cd  0.65499629  0.27767531  0.72388028     1.37500
O590        O  0.64773945  0.24262850  0.76709548    -0.53000
O591        O  0.61593179  0.29905497  0.72398423    -0.51800
C592        C  0.70556048  0.28617010  0.73881192     0.81900
O593        O  0.64589329  0.31849160  0.69811744    -0.54200
O594        O  0.64593381  0.27788601  0.79439120    -0.52700
O595        O  0.66440590  0.26647856  0.65616185    -0.52700
O596        O  0.69780366  0.26595022  0.72667271    -0.51800
O597        O  0.98432049  0.89190441  0.61400343    -0.53000
C598        C  0.97618560  0.89213197  0.72821784     0.79600
O599        O  0.92387157  0.93446748  0.63838223    -0.54200
C600        C  0.97196068  0.88957028  0.58312848     0.79600
C601        C  0.90912864  0.86778595  0.67443634     0.82000
Cd602      Cd  0.94923463  0.89919665  0.65711304     1.37500
O603        O  0.98007398  0.87897182  0.69860584    -0.53000
O604        O  0.92777657  0.86014194  0.65683005    -0.58200
C605        C  0.94077160  0.94981694  0.64219522     0.81900
O606        O  0.90840807  0.89012560  0.68278320    -0.54200
O607        O  0.96043110  0.90865586  0.72482226    -0.52700
O608        O  0.94914352  0.89017161  0.58656689    -0.52700
O609        O  0.96097883  0.94204251  0.65428222    -0.51800
O610        O  0.00214771  0.87908566  0.94846887    -0.53000
C611        C  0.01045932  0.88951736  0.83309391     0.79600
O612        O  0.05853267  0.93436820  0.88812997    -0.54200
C613        C  0.00622534  0.89209226  0.97818925     0.79600
C614        C  0.07321535  0.86754524  0.92420953     0.82000
Cd615      Cd  0.03318977  0.89909791  0.90704199     1.37500
O616        O  0.99810803  0.89170524  0.86401940    -0.53000
O617        O  0.05457056  0.85998765  0.90651364    -0.51800
C618        C  0.04164586  0.94972218  0.89203642     0.81900
O619        O  0.07396461  0.88985842  0.93273226    -0.54200
O620        O  0.03327565  0.89023560  0.83646402    -0.52700
O621        O  0.02217528  0.90843895  0.97488373    -0.52700
O622        O  0.02146701  0.94195522  0.90428099    -0.51800
O623        O  0.98431212  0.07913070  0.64117627    -0.53000
C624        C  0.97611925  0.07877781  0.52700833     0.79600
O625        O  0.92386964  0.03653548  0.61709103    -0.54200
C626        C  0.97195650  0.08145414  0.67207031     0.79600
C627        C  0.90908361  0.10315325  0.58093542     0.82000
Cd628      Cd  0.94921465  0.07178356  0.59817639     1.37500
O629        O  0.98004548  0.09195417  0.55658550    -0.53000
O630        O  0.92774370  0.11082869  0.59845815    -0.51800
C631        C  0.94076637  0.02118423  0.61327180     0.81900
O632        O  0.90838045  0.08081179  0.57260066    -0.54200
O633        O  0.96035148  0.06226856  0.53047355    -0.52700
O634        O  0.94913923  0.08083431  0.66867933    -0.52700
O635        O  0.96096413  0.02894656  0.60109732    -0.51800
O636        O  0.00221390  0.09194362  0.80663945    -0.53000
C637        C  0.01030036  0.08131490  0.92202998     0.79600
O638        O  0.05843445  0.03646639  0.86696056    -0.54200
C639        C  0.00616738  0.07884689  0.77697663     0.79600
C640        C  0.07322551  0.10303205  0.83091912     0.82000
Cd641      Cd  0.03305414  0.07169626  0.84810549     1.37500
O642        O  0.99793491  0.07870414  0.89121979    -0.53000
O643        O  0.05456949  0.11072179  0.84845717    -0.51800
C644        C  0.04156762  0.02108820  0.86308580     0.81900
O645        O  0.07389934  0.08069550  0.82254252    -0.54200
O646        O  0.03311962  0.08099988  0.91853570    -0.52700
O647        O  0.02195670  0.06235437  0.78033543    -0.52700
O648        O  0.02136764  0.02882828  0.85091235    -0.51800
O649        O  0.98046536  0.37840999  0.80728149    -0.53000
C650        C  0.97232982  0.38907738  0.92270090     0.79600
O651        O  0.92421154  0.43397124  0.86738661    -0.54200
C652        C  0.97665301  0.39160127  0.77768152     0.79600
C653        C  0.90948615  0.36741020  0.83136606     0.82000
Cd654      Cd  0.94964769  0.39872779  0.84873837     1.37500
O655        O  0.98471196  0.39153992  0.89186301    -0.53000
O656        O  0.92807627  0.35972037  0.84906678    -0.51800
C657        C  0.94111079  0.44933725  0.86372953     0.81900
O658        O  0.90886438  0.38973947  0.82292849    -0.54200
O659        O  0.94951290  0.38955634  0.91922833    -0.52700
O660        O  0.96096287  0.40818655  0.78107930    -0.52700
O661        O  0.96136304  0.44158510  0.85178132    -0.51800
O662        O  0.99845789  0.39133678  0.64190019    -0.53000
C663        C  0.00654893  0.39159897  0.52761575     0.79600
O664        O  0.05878992  0.43397857  0.61740388    -0.54200
C665        C  0.01085263  0.38897310  0.67273198     0.79600
C666        C  0.07364420  0.36732308  0.58138595     0.82000
Cd667      Cd  0.03349182  0.39864868  0.59871930     1.37500
O668        O  0.00263800  0.37844226  0.55722851    -0.53000
O669        O  0.05495411  0.35960324  0.59879563    -0.51800
C670        C  0.04185485  0.44928897  0.61360799     0.81900
O671        O  0.07437253  0.38968984  0.57322579    -0.54200
O672        O  0.02232655  0.40810227  0.53101054    -0.52700
O673        O  0.03366619  0.38955403  0.66923040    -0.52700
O674        O  0.02165480  0.44146442  0.60157135    -0.51800
O675        O  0.98036855  0.59134474  0.94862641    -0.53000
C676        C  0.97190011  0.58099710  0.83320484     0.79600
O677        O  0.92396547  0.53603177  0.88873777    -0.54200
C678        C  0.97622906  0.57838287  0.97838189     0.79600
C679        C  0.90924794  0.60295348  0.92444264     0.82000
Cd680      Cd  0.94927220  0.57140342  0.90726041     1.37500
O681        O  0.98428291  0.57889333  0.86410003    -0.53000
O682        O  0.92794438  0.61054069  0.90690065    -0.51800
C683        C  0.94092613  0.52074142  0.89245296     0.81900
O684        O  0.90844732  0.58061614  0.93279115    -0.54200
O685        O  0.94908885  0.58019057  0.83664657    -0.52700
O686        O  0.96021452  0.56209866  0.97512692    -0.52700
O687        O  0.96113655  0.52859251  0.90439613    -0.51800
O688        O  0.99813544  0.57861344  0.61417458    -0.53000
C689        C  0.00618637  0.57837384  0.72830383     0.79600
O690        O  0.05861564  0.53606767  0.63843719    -0.54200
C691        C  0.01049581  0.58088587  0.58327547     0.79600
C692        C  0.07332606  0.60271780  0.67448975     0.82000
Cd693      Cd  0.03321571  0.57130302  0.65724276     1.37500
O694        O  0.00239319  0.59159005  0.69872545    -0.53000
O695        O  0.05469706  0.61034780  0.65683447    -0.51800
C696        C  0.04174505  0.52069084  0.64232188     0.81900
O697        O  0.07401439  0.58039499  0.68296201    -0.54200
O698        O  0.02188370  0.56179456  0.72489596    -0.52700
O699        O  0.03331128  0.58023771  0.58667911    -0.52700
O700        O  0.02153768  0.52843498  0.65447913    -0.51800
O701        O  0.83471066  0.74227994  0.76659347    -0.53000
C702        C  0.83456841  0.75043673  0.65231421     0.79600
O703        O  0.79230387  0.80273992  0.74237084    -0.54200
C704        C  0.83713588  0.75466788  0.79743597     0.79600
C705        C  0.85894793  0.81750663  0.70615353     0.82000
Cd706      Cd  0.82753794  0.77738590  0.72345928     1.37500
O707        O  0.84755633  0.74634619  0.68203514    -0.53000
O708        O  0.86660390  0.79879682  0.72360984    -0.51800
C709        C  0.77696107  0.78584447  0.73841557     0.81900
O710        O  0.83661244  0.81826842  0.69794383    -0.54200
O711        O  0.81823075  0.76639130  0.65562088    -0.52700
O712        O  0.83665125  0.77750649  0.79396038    -0.52700
O713        O  0.78472327  0.76565098  0.72617211    -0.51800
O714        O  0.84777613  0.72427860  0.93193708    -0.53000
C715        C  0.83717984  0.71616371  0.54738883     0.79600
O716        O  0.79250955  0.66786507  0.99239382    -0.54200
C717        C  0.83459762  0.72039150  0.90236506     0.79600
C718        C  0.85908087  0.65327701  0.95606183     0.82000
Cd719      Cd  0.82763859  0.69336298  0.97345511     1.37500
O720        O  0.83476258  0.72852255  0.51651212    -0.53000
O721        O  0.86669839  0.67193419  0.97370376    -0.51800
C722        C  0.77710221  0.68470407  0.98848005     0.81900
O723        O  0.83676744  0.65254968  0.94769106    -0.54200
O724        O  0.83671030  0.69332250  0.54396741    -0.52700
O725        O  0.81810420  0.70460568  0.90579977    -0.52700
O726        O  0.78478360  0.70493507  0.97625273    -0.51800
O727        O  0.64800017  0.74188959  0.73916452    -0.53000
C728        C  0.64810916  0.75007889  0.85333387     0.79600
O729        O  0.69025687  0.80257813  0.76341608    -0.54200
C730        C  0.64559107  0.75422727  0.70826411     0.79600
C731        C  0.62362545  0.81716551  0.79943588     0.82000
Cd732      Cd  0.65509408  0.77707080  0.78219468     1.37500
O733        O  0.63495392  0.74615941  0.82374545    -0.53000
O734        O  0.61604269  0.79852181  0.78171732    -0.51800
C735        C  0.70564391  0.78571221  0.76723676     0.81900
O736        O  0.64591809  0.81787603  0.80795216    -0.54200
O737        O  0.66457962  0.76588789  0.84990180    -0.52700
O738        O  0.64605350  0.77707161  0.71165206    -0.52700
O739        O  0.69793633  0.76546289  0.77933859    -0.51800
O740        O  0.63519854  0.72398554  0.57366077    -0.53000
C741        C  0.64562550  0.71573726  0.95822403     0.79600
O742        O  0.69046231  0.66760554  0.51341140    -0.54200
C743        C  0.64818560  0.71988133  0.60337679     0.79600
C744        C  0.62364157  0.65289675  0.54921753     0.82000
Cd745      Cd  0.65518966  0.69295780  0.53217810     1.37500
O746        O  0.64784467  0.72808952  0.98914499    -0.53000
O747        O  0.61608308  0.67164562  0.53176700    -0.51800
C748        C  0.70578398  0.68452647  0.51730896     0.81900
O749        O  0.64595711  0.65205821  0.55755261    -0.54200
O750        O  0.64632554  0.69289864  0.96159555    -0.52700
O751        O  0.66450497  0.70390793  0.60005846    -0.52700
O752        O  0.69799335  0.70472994  0.52946288    -0.51800
O753        O  0.34740082  0.74645915  0.57279066    -0.53000
C754        C  0.33697750  0.75485669  0.95740391     0.79600
O755        O  0.29217962  0.80290218  0.51252729    -0.54200
C756        C  0.33439654  0.75052158  0.60251530     0.79600
C757        C  0.35898955  0.81751757  0.54879893     0.82000
Cd758      Cd  0.32741325  0.77753316  0.53143013     1.37500
O759        O  0.33459079  0.74245252  0.98824345    -0.53000
O760        O  0.36656499  0.79877829  0.53133566    -0.51800
C761        C  0.27682621  0.78602069  0.51657699     0.81900
O762        O  0.33664748  0.81838976  0.55696905    -0.54200
O763        O  0.33645682  0.77769290  0.96089866    -0.52700
O764        O  0.31805272  0.76647198  0.59923500    -0.52700
O765        O  0.28458239  0.76583979  0.52888155    -0.51800
O766        O  0.33445293  0.72864895  0.73826785    -0.53000
C767        C  0.33444034  0.72058687  0.85248222     0.79600
O768        O  0.29234400  0.66802402  0.76249772    -0.54200
C769        C  0.33701000  0.71626312  0.70745067     0.79600
C770        C  0.35888143  0.65343867  0.79890202     0.82000
Cd771      Cd  0.32745959  0.69352272  0.78144468     1.37500
O772        O  0.34750982  0.72457120  0.82280282    -0.53000
O773        O  0.36654113  0.67213158  0.78139065    -0.51800
C774        C  0.27691959  0.68483461  0.76654537     0.81900
O775        O  0.33654372  0.65268311  0.80711867    -0.54200
O776        O  0.31804755  0.70468804  0.84917774    -0.52700
O777        O  0.33667866  0.69342384  0.71095855    -0.52700
O778        O  0.28458747  0.70505349  0.77883189    -0.51800
O779        O  0.13479109  0.74630825  0.93141724    -0.53000
C780        C  0.14544809  0.75434173  0.54691976     0.79600
O781        O  0.19008480  0.80268316  0.99182313    -0.54200
C782        C  0.14801082  0.75016486  0.90186872     0.79600
C783        C  0.12342879  0.81722600  0.95567424     0.82000
Cd784      Cd  0.15494716  0.77717324  0.97296838     1.37500
O785        O  0.14789862  0.74199310  0.51604070    -0.53000
O786        O  0.11582450  0.79849671  0.97314303    -0.51800
C787        C  0.20549852  0.78585329  0.98784711     0.81900
O788        O  0.14576072  0.81803862  0.94742259    -0.54200
O789        O  0.14587769  0.77718389  0.54349952    -0.52700
O790        O  0.16453383  0.76591628  0.90532601    -0.52700
O791        O  0.19781577  0.76562442  0.97562455    -0.51800
O792        O  0.13493513  0.72405461  0.68150175    -0.53000
C793        C  0.14546631  0.71585228  0.79697843     0.79600
O794        O  0.14589527  0.65223430  0.69749425    -0.54200
C795        C  0.14801762  0.72004935  0.65184602     0.79600
C796        C  0.20559621  0.68465252  0.73788161     0.82000
Cd797      Cd  0.15502042  0.69310546  0.72300977     1.37500
O798        O  0.14775678  0.72822176  0.76608421    -0.53000
O799        O  0.19781087  0.70487764  0.72581724    -0.51800
C800        C  0.12358114  0.65298541  0.70587993     0.81900
O801        O  0.19027499  0.66772267  0.74170276    -0.54200
O802        O  0.14606850  0.69301332  0.79356654    -0.52700
O803        O  0.16442943  0.70417821  0.65522308    -0.52700
O804        O  0.11596579  0.67168383  0.72341469    -0.51800
O805        O  0.33483162  0.22815622  0.76618727    -0.53000
C806        C  0.33462011  0.21986747  0.65202573     0.79600
O807        O  0.33673917  0.15210560  0.69768160    -0.54200
C808        C  0.33719877  0.21581068  0.79708963     0.79600
C809        C  0.27704389  0.18448772  0.73831392     0.82000
Cd810      Cd  0.32759772  0.19297460  0.72322804     1.37500
O811        O  0.34772572  0.22385620  0.68164750    -0.53000
O812        O  0.28477013  0.20465459  0.72588676    -0.51800
C813        C  0.35905121  0.15287606  0.70606090     0.81900
O814        O  0.29241034  0.16762475  0.74237580    -0.54200
O815        O  0.31816520  0.20404013  0.65545718    -0.52700
O816        O  0.33664401  0.19296926  0.79371965    -0.52700
O817        O  0.36664598  0.17157284  0.72361423    -0.51800
O818        O  0.33468220  0.24178009  0.51621875    -0.53000
C819        C  0.33466120  0.25004925  0.90203032     0.79600
O820        O  0.29255257  0.30249088  0.99205834    -0.54200
C821        C  0.33723533  0.25412510  0.54707869     0.79600
C822        C  0.35903361  0.31711124  0.95580459     0.82000
Cd823      Cd  0.32766897  0.27697523  0.97319071     1.37500
O824        O  0.34788490  0.24618197  0.93155682    -0.53000
O825        O  0.36668300  0.29847681  0.97347714    -0.51800
C826        C  0.27715273  0.28563439  0.98824736     0.81900
O827        O  0.33672093  0.31779441  0.94742133    -0.54200
O828        O  0.31810476  0.26575697  0.90555172    -0.52700
O829        O  0.33689537  0.27696935  0.54365368    -0.52700
O830        O  0.28483512  0.26538283  0.97612235    -0.51800
O831        O  0.13524467  0.22418067  0.82381704    -0.53000
C832        C  0.14568940  0.21596103  0.70845258     0.79600
O833        O  0.19035277  0.16774241  0.76320570    -0.54200
C834        C  0.14822497  0.22004870  0.85353155     0.79600
C835        C  0.12365646  0.15312866  0.79951742     0.82000
Cd836      Cd  0.15521315  0.19314610  0.78235399     1.37500
O837        O  0.14815360  0.22832075  0.73931710    -0.53000
O838        O  0.11608527  0.17188604  0.78210247    -0.51800
C839        C  0.20576013  0.18455990  0.76736267     0.81900
O840        O  0.14598440  0.15226717  0.80776208    -0.54200
O841        O  0.14610507  0.19311948  0.71188085    -0.52700
O842        O  0.16453812  0.20406975  0.85020532    -0.52700
O843        O  0.19807613  0.20472795  0.77984252    -0.51800
O844        O  0.14829168  0.24193206  0.98930355    -0.53000
C845        C  0.14834589  0.25017645  0.60349392     0.79600
O846        O  0.19048347  0.30253613  0.51321868    -0.54200
C847        C  0.14571433  0.25429473  0.95846464     0.79600
C848        C  0.12393036  0.31717416  0.54968030     0.82000
Cd849      Cd  0.15535627  0.27709828  0.53233581     1.37500
O850        O  0.13530553  0.24612499  0.57382072    -0.53000
O851        O  0.11629636  0.29847622  0.53216996    -0.51800
C852        C  0.20588036  0.28569675  0.51722043     0.81900
O853        O  0.14626008  0.31794889  0.55793020    -0.54200
O854        O  0.16474129  0.26606953  0.60012524    -0.52700
O855        O  0.14607496  0.27713710  0.96190681    -0.52700
O856        O  0.19819422  0.26549850  0.52957707    -0.51800
O857        O  0.50216618  0.59169403  0.55622054    -0.53000
C858        C  0.51028300  0.58105685  0.67168767     0.79600
O859        O  0.55838736  0.53618258  0.61634701    -0.54200
C860        C  0.50605643  0.57854291  0.52659851     0.79600
C861        C  0.57319198  0.60278742  0.58051224     0.82000
Cd862      Cd  0.53300792  0.57145181  0.59770297     1.37500
O863        O  0.49792465  0.57873777  0.64080905    -0.53000
O864        O  0.55455976  0.61046435  0.59812855    -0.51800
C865        C  0.54148258  0.52083530  0.61258499     0.81900
O866        O  0.57383617  0.58046404  0.57204646    -0.54200
O867        O  0.53310009  0.58044982  0.66825521    -0.52700
O868        O  0.52181751  0.56202475  0.52998043    -0.52700
O869        O  0.52125745  0.52861230  0.60058177    -0.51800
O870        O  0.48413061  0.57893636  0.89080806    -0.53000
C871        C  0.47600366  0.57855845  0.77661190     0.79600
O872        O  0.42369626  0.53626315  0.86645880    -0.54200
C873        C  0.47177801  0.58116231  0.92172376     0.79600
C874        C  0.40900115  0.60309274  0.83057593     0.82000
Cd875      Cd  0.44904938  0.57157899  0.84776992     1.37500
O876        O  0.47992464  0.59172505  0.80620234    -0.53000
O877        O  0.42768863  0.61069283  0.84810525    -0.51800
C878        C  0.44063103  0.52094216  0.86273285     0.81900
O879        O  0.40821245  0.58075135  0.82225085    -0.54200
O880        O  0.46020740  0.56207351  0.78004740    -0.52700
O881        O  0.44896121  0.58048377  0.91834118    -0.52700
O882        O  0.46084306  0.52875065  0.85069980    -0.51800
O883        O  0.50228105  0.37849770  0.69804657    -0.53000
C884        C  0.51036668  0.38918001  0.58252461     0.79600
O885        O  0.55841292  0.43411887  0.63772993    -0.54200
C886        C  0.50600431  0.39179586  0.72755163     0.79600
C887        C  0.57323043  0.36769185  0.67414007     0.82000
Cd888      Cd  0.53302257  0.39887119  0.65649959     1.37500
O889        O  0.49797473  0.39165313  0.61334971    -0.53000
O890        O  0.55471130  0.35994083  0.65631299    -0.51800
C891        C  0.54149330  0.44945996  0.64138962     0.81900
O892        O  0.57377175  0.39002617  0.68255056    -0.54200
O893        O  0.53318309  0.38963117  0.58602500    -0.52700
O894        O  0.52160420  0.40845981  0.72405057    -0.52700
O895        O  0.52125890  0.44168924  0.65338777    -0.51800
O896        O  0.48024781  0.37888865  0.94782340    -0.53000
C897        C  0.47182615  0.38925008  0.83252679     0.79600
O898        O  0.40833805  0.38978908  0.93209621    -0.54200
C899        C  0.47615880  0.39184349  0.97760038     0.79600
C900        C  0.44069750  0.44954758  0.89159600     0.82000
Cd901      Cd  0.44917545  0.39891306  0.90653203     1.37500
O902        O  0.48422098  0.39164037  0.86335398    -0.53000
O903        O  0.46084661  0.44180703  0.90399064    -0.51800
C904        C  0.40914762  0.36742397  0.92394875     0.81900
O905        O  0.42386015  0.43416004  0.88748577    -0.54200
O906        O  0.44901255  0.38981434  0.83602951    -0.52700
O907        O  0.46019577  0.40818104  0.97438164    -0.52700
O908        O  0.42785166  0.35978265  0.90649523    -0.51800
O909        O  0.50241752  0.87893280  0.80674326    -0.53000
C910        C  0.51066685  0.88939344  0.92212594     0.79600
O911        O  0.57427798  0.88984652  0.82283637    -0.54200
C912        C  0.50647666  0.89194663  0.77701997     0.79600
C913        C  0.54190719  0.94962758  0.86311966     0.82000
Cd914      Cd  0.53338820  0.89900668  0.84815811     1.37500
O915        O  0.49829398  0.89185105  0.89128990    -0.53000
O916        O  0.52172128  0.94189061  0.85087375    -0.51800
C917        C  0.57341783  0.86747630  0.83094736     0.81900
O918        O  0.55876514  0.93424538  0.86704452    -0.54200
O919        O  0.53348377  0.88986950  0.91864672    -0.52700
O920        O  0.52238077  0.90833742  0.78031890    -0.52700
O921        O  0.55465534  0.85984647  0.84825687    -0.51800
O922        O  0.48027955  0.87864306  0.55661989    -0.53000
C923        C  0.47226313  0.88927101  0.67209942     0.79600
O924        O  0.42406646  0.93404648  0.61734158    -0.54200
C925        C  0.47647674  0.89191081  0.52710206     0.79600
C926        C  0.40937031  0.86756120  0.58067035     0.82000
Cd927      Cd  0.44949196  0.89889913  0.59819930     1.37500
O928        O  0.48461903  0.89184501  0.64125718    -0.53000
O929        O  0.42794604  0.85987829  0.59841945    -0.51800
C930        C  0.44090032  0.94945838  0.61340302     0.81900
O931        O  0.40874111  0.88989484  0.57225815    -0.54200
O932        O  0.44944275  0.88959923  0.66864465    -0.52700
O933        O  0.46080923  0.90850924  0.53060799    -0.52700
O934        O  0.46108489  0.94177347  0.60105749    -0.51800
O935        O  0.48038553  0.09166281  0.69879641    -0.53000
C936        C  0.47229499  0.08095115  0.58335987     0.79600
O937        O  0.42410605  0.03618722  0.63857364    -0.54200
C938        C  0.47651416  0.07850793  0.72842447     0.79600
C939        C  0.40941225  0.10273262  0.67460293     0.82000
Cd940      Cd  0.44955769  0.07138074  0.65734050     1.37500
O941        O  0.48466284  0.07841014  0.61418273    -0.53000
O942        O  0.42805267  0.11041129  0.65700445    -0.51800
C943        C  0.44095544  0.02078968  0.64242133     0.81900
O944        O  0.40874090  0.08039992  0.68300952    -0.54200
O945        O  0.44947660  0.08058418  0.58685576    -0.52700
O946        O  0.46077964  0.06196168  0.72504947    -0.52700
O947        O  0.46117834  0.02850459  0.65454143    -0.51800
O948        O  0.49841493  0.07899930  0.86423263    -0.53000
C949        C  0.50652610  0.07846889  0.97839858     0.79600
O950        O  0.55885814  0.03634073  0.88834113    -0.54200
C951        C  0.51076891  0.08118808  0.83330910     0.79600
C952        C  0.57345114  0.10319683  0.92456396     0.82000
Cd953      Cd  0.53349372  0.07159068  0.90725328     1.37500
O954        O  0.50246587  0.09153739  0.94874086    -0.53000
O955        O  0.55477423  0.11075126  0.90695624    -0.51800
C956        C  0.54196717  0.02098077  0.89218719     0.81900
O957        O  0.57427519  0.08085892  0.93290667    -0.54200
O958        O  0.52245920  0.06211368  0.97502731    -0.52700
O959        O  0.53358511  0.08047492  0.83668443    -0.52700
O960        O  0.52177870  0.02873616  0.90440454    -0.51800
C961        C  0.48369148  0.08285616  0.54578265    -0.08500
C962        C  0.49370889  0.08186886  0.51449991    -0.10000
C963        C  0.48932165  0.08201804  0.76449699    -0.08500
C964        C  0.49934603  0.08306575  0.79575977    -0.10000
C965        C  0.43773156  0.99569179  0.63250187    -0.08500
C966        C  0.43770765  0.97454194  0.62344215    -0.10000
C967        C  0.54508247  0.97473041  0.87309050    -0.08500
C968        C  0.54510594  0.99588050  0.88217219    -0.10000
C969        C  0.49368519  0.88844990  0.74093016    -0.08500
C970        C  0.48367221  0.88739610  0.70965908    -0.10000
C971        C  0.49927574  0.88746770  0.95970260    -0.08500
C972        C  0.48927635  0.88846173  0.99099840    -0.10000
C973        C  0.49899179  0.38728870  0.54493814    -0.08500
C974        C  0.48897816  0.38834037  0.51366576    -0.10000
C975        C  0.49319303  0.38831169  0.76363757    -0.08500
C976        C  0.48319555  0.38731000  0.79493506    -0.10000
C977        C  0.43753803  0.47466201  0.88167907    -0.08500
C978        C  0.43750985  0.49582494  0.87266632    -0.10000
C979        C  0.54466110  0.47456132  0.63144244    -0.08500
C980        C  0.54465494  0.49572310  0.62245208    -0.10000
C981        C  0.49886590  0.58297565  0.70925001    -0.08500
C982        C  0.48882921  0.58198646  0.74051941    -0.10000
C983        C  0.48320311  0.58305024  0.95927091    -0.08500
C984        C  0.49323744  0.58202386  0.99052777    -0.10000
C985        C  0.14487019  0.23739396  0.63960997    -0.08500
C986        C  0.14382695  0.22738805  0.67089841    -0.10000
C987        C  0.14478435  0.23284720  0.88964041    -0.08500
C988        C  0.14378789  0.24286855  0.92091860    -0.10000
C989        C  0.37521458  0.33630659  0.94483613    -0.08500
C990        C  0.39001709  0.35117656  0.93493476    -0.10000
C991        C  0.23094915  0.28889898  0.50723369    -0.08500
C992        C  0.25208388  0.28887957  0.99819361    -0.10000
C993        C  0.39019079  0.11890386  0.68544826    -0.08500
C994        C  0.37529963  0.13371406  0.69522059    -0.10000
C995        C  0.25196718  0.18134381  0.74832016    -0.08500
C996        C  0.23083523  0.18136673  0.75739088    -0.10000
C997        C  0.33911049  0.22725709  0.83462169    -0.08500
C998        C  0.33810889  0.23726862  0.86590745    -0.10000
C999        C  0.33808399  0.23265472  0.61590307    -0.08500
C1000       C  0.33911307  0.24267952  0.58462458    -0.10000
C1001       C  0.14357067  0.74289833  0.58447189    -0.08500
C1002       C  0.14457846  0.73286401  0.61574433    -0.10000
C1003       C  0.14458919  0.73732567  0.86579258    -0.08500
C1004       C  0.14358252  0.72728080  0.83453356    -0.10000
C1005       C  0.38987060  0.61936374  0.81969251    -0.08500
C1006       C  0.37507086  0.63424822  0.80985115    -0.10000
C1007       C  0.25183941  0.68157360  0.75668772    -0.08500
C1008       C  0.23069103  0.68151485  0.74774178    -0.10000
C1009       C  0.37528292  0.83661700  0.55976935    -0.08500
C1010       C  0.39017462  0.85139590  0.56966926    -0.10000
C1011       C  0.25172998  0.78915609  0.50669090    -0.08500
C1012       C  0.23058244  0.78910247  0.99772069    -0.10000
C1013       C  0.33887923  0.74347164  0.91981478    -0.08500
C1014       C  0.33787919  0.73344343  0.88854034    -0.10000
C1015       C  0.33888409  0.72766278  0.66986762    -0.08500
C1016       C  0.33785448  0.73768897  0.63859209    -0.10000
C1017       C  0.59243530  0.61895030  0.56971619    -0.08500
C1018       C  0.60735251  0.63375075  0.55999356    -0.10000
C1019       C  0.60739465  0.83634381  0.81029648    -0.08500
C1020       C  0.59256360  0.85121295  0.82008826    -0.10000
C1021       C  0.64474605  0.73270830  0.63947175    -0.08500
C1022       C  0.64372675  0.74276508  0.67072588    -0.10000
C1023       C  0.64370764  0.72718661  0.92068329    -0.08500
C1024       C  0.64468752  0.73723826  0.88942122    -0.10000
C1025       C  0.75202643  0.68145945  0.99841716    -0.08500
C1026       C  0.73088204  0.68140452  0.50741794    -0.10000
C1027       C  0.73072533  0.78894657  0.75732926    -0.08500
C1028       C  0.75186989  0.78898482  0.74833188    -0.10000
C1029       C  0.83903513  0.74326439  0.83501096    -0.08500
C1030       C  0.83803055  0.73323228  0.86628498    -0.10000
C1031       C  0.83905473  0.72759680  0.58494278    -0.08500
C1032       C  0.83802997  0.73762432  0.61621710    -0.10000
C1033       C  0.09250989  0.61893602  0.68532432    -0.08500
C1034       C  0.10735966  0.63379280  0.69507408    -0.10000
C1035       C  0.89011442  0.61922902  0.93530801    -0.08500
C1036       C  0.87529451  0.63409995  0.94513411    -0.10000
C1037       C  0.98905474  0.58181119  0.51445813    -0.08500
C1038       C  0.99908295  0.58280061  0.54572283    -0.10000
C1039       C  0.98329601  0.58288730  0.79562162    -0.08500
C1040       C  0.99333683  0.58185711  0.76435955    -0.10000
C1041       C  0.09285128  0.35115764  0.57046385    -0.08500
C1042       C  0.10771144  0.33633811  0.56061234    -0.10000
C1043       C  0.04496665  0.47441321  0.62346712    -0.08500
C1044       C  0.04493406  0.49558063  0.63243148    -0.10000
C1045       C  0.93789620  0.47444429  0.87362996    -0.08500
C1046       C  0.93783436  0.49561198  0.88259949    -0.10000
C1047       C  0.98947094  0.38808676  0.74160996    -0.08500
C1048       C  0.99948008  0.38705436  0.71032479    -0.10000
C1049       C  0.98371647  0.38714679  0.96026920    -0.08500
C1050       C  0.99373462  0.38814225  0.99153970    -0.10000
C1051       C  0.09246183  0.11919552  0.82010375    -0.08500
C1052       C  0.10737078  0.13399406  0.81034697    -0.10000
C1053       C  0.98890302  0.08222607  0.99089210    -0.08500
C1054       C  0.99890426  0.08322975  0.95960017    -0.10000
C1055       C  0.98337280  0.08337604  0.70961353    -0.08500
C1056       C  0.99338289  0.08235302  0.74088706    -0.10000
C1057       C  0.09235011  0.85126234  0.93503994    -0.08500
C1058       C  0.10718403  0.83639244  0.94481305    -0.10000
C1059       C  0.04477981  0.97482838  0.88206274    -0.08500
C1060       C  0.04475147  0.99598409  0.87302084    -0.10000
C1061       C  0.88996595  0.85156331  0.68537533    -0.08500
C1062       C  0.87514433  0.83670094  0.69523417    -0.10000
C1063       C  0.93761566  0.99608345  0.62325162    -0.08500
C1064       C  0.93761692  0.97492708  0.63228376    -0.10000
C1065       C  0.99903246  0.88762737  0.79554967    -0.08500
C1066       C  0.98900007  0.88865361  0.76429183    -0.10000
C1067       C  0.98337450  0.88764651  0.54556091    -0.08500
C1068       C  0.99340284  0.88864365  0.51428309    -0.10000
C1069       C  0.59244928  0.35159330  0.68525541    -0.08500
C1070       C  0.60732445  0.33683395  0.69527314    -0.10000
C1071       C  0.60729636  0.13442282  0.94538627    -0.08500
C1072       C  0.59253195  0.11951176  0.93550766    -0.10000
C1073       C  0.64444905  0.23367509  0.86680308    -0.08500
C1074       C  0.64345428  0.24368898  0.83551707    -0.10000
C1075       C  0.64340912  0.22779495  0.58550457    -0.08500
C1076       C  0.64446805  0.23780293  0.61678836    -0.10000
C1077       C  0.89026677  0.35125644  0.82044058    -0.08500
C1078       C  0.87535765  0.33648208  0.81059907    -0.10000
C1079       C  0.73064604  0.28932816  0.74872958    -0.08500
C1080       C  0.75178738  0.28929691  0.75772543    -0.10000
C1081       C  0.88987575  0.11933799  0.57009940    -0.08500
C1082       C  0.87499605  0.13416193  0.56034971    -0.10000
C1083       C  0.75159135  0.18177397  0.50770145    -0.08500
C1084       C  0.73044431  0.18181962  0.99873914    -0.10000
C1085       C  0.83876993  0.22756134  0.92092510    -0.08500
C1086       C  0.83777215  0.23760050  0.88966010    -0.10000
C1087       C  0.83778111  0.23317606  0.63967789    -0.08500
C1088       C  0.83880607  0.24321224  0.67094355    -0.10000
loop_ 
_geom_bond_atom_site_label_1 
_geom_bond_atom_site_label_2 
_geom_bond_distance 
_geom_bond_site_symmetry_2 
_ccdc_geom_bond_type 
O1            C4   1.264       .  A
O1         Cd550   2.465       .  S
C2           O11   1.263       .  A
C2            O7   1.265       .  A
C2          C543   1.436       .  S
O3            C9   1.265       .  A
O3           Cd6   2.478       .  S
C4           O12   1.264       .  A
C4          C541   1.435       .  S
C5           O10   1.264       .  A
C5            O8   1.264       .  A
C5          C538   1.433       .  S
Cd6          O13   2.449       .  S
Cd6          O11   2.455       .  S
Cd6           O7   2.480       .  S
Cd6          O10   2.466       .  S
Cd6           O8   2.454       .  S
Cd6         O545   2.465   1_554  S
Cd6         O556   2.465   1_554  S
C9           O13   1.263       .  A
C9          C539   1.435       .  S
O12        Cd550   2.465       .  S
O14          C17   1.265       .  A
O14         Cd19   2.479       .  S
C15          O24   1.264       .  A
C15          O20   1.264       .  A
C15         C544   1.435       .  S
O16          C22   1.265       .  A
O16         Cd19   2.478       .  S
C17          O25   1.263       .  A
C17         C542   1.436       .  S
C18          O23   1.264       .  A
C18          O21   1.264       .  A
C18         C534   1.433       .  S
Cd19         O26   2.449       .  S
Cd19         O25   2.455       .  S
Cd19         O24   2.466       .  S
Cd19         O20   2.465       .  S
Cd19         O23   2.467       .  S
Cd19         O21   2.455       .  S
C22          O26   1.263       .  A
C22         C536   1.435       .  S
O27          C30   1.264       .  A
O27        Cd576   2.465   1_554  S
C28          O37   1.263       .  A
C28          O33   1.265       .  A
C28         C529   1.436       .  S
O29          C35   1.265       .  A
O29         Cd32   2.478       .  S
C30          O38   1.264       .  A
C30         C531   1.435       .  S
C31          O36   1.264       .  A
C31          O34   1.264       .  A
C31         C527   1.433       .  S
Cd32         O39   2.448       .  S
Cd32         O37   2.454       .  S
Cd32         O33   2.480       .  S
Cd32         O36   2.466       .  S
Cd32         O34   2.456       .  S
Cd32        O571   2.465       .  S
Cd32        O582   2.466       .  S
C35          O39   1.263       .  A
C35         C540   1.435       .  S
O38        Cd576   2.466   1_554  S
O40          C43   1.265       .  A
O40         Cd45   2.480       .  S
C41          O50   1.264       .  A
C41          O46   1.264       .  A
C41         C530   1.435       .  S
O42          C48   1.265       .  A
O42         Cd45   2.478       .  S
C43          O51   1.263       .  A
C43         C532   1.436       .  S
C44          O49   1.264       .  A
C44          O47   1.264       .  A
C44         C526   1.433       .  S
Cd45         O52   2.448       .  S
Cd45         O51   2.454       .  S
Cd45         O50   2.465       .  S
Cd45         O46   2.464       .  S
Cd45         O49   2.466       .  S
Cd45         O47   2.454       .  S
C48          O52   1.263       .  A
C48         C535   1.435       .  S
O53          C56   1.264       .  A
O53         Cd58   2.465       .  S
C54          O63   1.263       .  A
C54          O59   1.265       .  A
C54         C522   1.436       .  S
O55          C61   1.265       .  A
O55         Cd58   2.478       .  S
C56          O64   1.264       .  A
C56         C523   1.436       .  S
C57          O62   1.264       .  A
C57          O60   1.264       .  A
C57         C517   1.433       .  S
Cd58         O65   2.449       .  S
Cd58         O64   2.466       .  S
Cd58         O63   2.455       .  S
Cd58         O59   2.480       .  S
Cd58         O62   2.467       .  S
Cd58         O60   2.455       .  S
C61          O65   1.263       .  A
C61         C520   1.434       .  S
O66          C69   1.265       .  A
O66         Cd71   2.480       .  S
C67          O76   1.264       .  A
C67          O72   1.264   1_455  A
C67         C521   1.435   1_455  S
O68          C74   1.265       .  A
O68         Cd71   2.478       .  S
C69          O77   1.263       .  A
C69        C1068   1.436   1_455  S
C70          O75   1.264       .  A
C70          O73   1.264       .  A
C70         C513   1.433       .  S
Cd71         O78   2.449       .  S
Cd71         O77   2.455       .  S
Cd71         O76   2.465       .  S
Cd71         O72   2.465   1_455  S
Cd71         O75   2.467       .  S
Cd71         O73   2.455       .  S
C74          O78   1.263       .  A
C74         C515   1.435       .  S
O79          C82   1.264       .  A
O79         Cd84   2.465       .  S
C80          O89   1.263       .  A
C80          O85   1.265       .  A
C80        C1053   1.436   1_554  S
O81          C87   1.265       .  A
O81         Cd84   2.478       .  S
C82          O90   1.264       .  A
C82         C511   1.435       .  S
C83          O88   1.264       .  A
C83          O86   1.264       .  A
C83         C537   1.433       .  S
Cd84         O91   2.448       .  S
Cd84         O90   2.465       .  S
Cd84         O89   2.454       .  S
Cd84         O85   2.479       .  S
Cd84         O88   2.466       .  S
Cd84         O86   2.455       .  S
C87          O91   1.263       .  A
C87         C519   1.434   1_545  S
O92          C95   1.265       .  A
O92         Cd97   2.480       .  S
C93         O102   1.264       .  A
C93          O98   1.264   1_455  A
C93         C510   1.435   1_455  S
O94         C100   1.265       .  A
O94         Cd97   2.478       .  S
C95         O103   1.263       .  A
C95         C512   1.436   1_455  S
C96         O101   1.264       .  A
C96          O99   1.264       .  A
C96         C507   1.433       .  S
Cd97        O104   2.449       .  S
Cd97        O103   2.454       .  S
Cd97        O102   2.465       .  S
Cd97         O98   2.464   1_455  S
Cd97        O101   2.466       .  S
Cd97         O99   2.455       .  S
C100        O104   1.263       .  A
C100        C516   1.435   1_545  S
O105        C108   1.264       .  A
O105       Cd110   2.480       .  S
C106        O115   1.264       .  A
C106        O111   1.264       .  A
C106        C505   1.435       .  S
O107        C113   1.265       .  A
O107       Cd110   2.478       .  S
C108        O116   1.263       .  A
C108        C503   1.436       .  S
C109        O114   1.264       .  A
C109        O112   1.264       .  A
C109        C533   1.433       .  S
Cd110       O117   2.449       .  S
Cd110       O116   2.455       .  S
Cd110       O115   2.466       .  S
Cd110       O111   2.465       .  S
Cd110       O114   2.466       .  S
Cd110       O112   2.455       .  S
C113        O117   1.263       .  A
C113        C501   1.435       .  S
O118        C121   1.264   1_655  A
O118       Cd123   2.465   1_655  S
C119        O128   1.263       .  A
C119        O124   1.265       .  A
C119       C1050   1.436   1_454  S
O120        C126   1.265       .  A
O120       Cd123   2.478       .  S
C121        O129   1.264       .  A
C121        C504   1.435   1_455  S
C122        O127   1.264       .  A
C122        O125   1.264       .  A
C122        C497   1.433       .  S
Cd123       O130   2.449       .  S
Cd123       O129   2.465       .  S
Cd123       O128   2.454       .  S
Cd123       O124   2.480       .  S
Cd123       O127   2.466       .  S
Cd123       O125   2.454       .  S
C126        O130   1.263       .  A
C126        C499   1.435       .  S
O131        C134   1.265       .  A
O131       Cd136   2.480       .  S
C132        O141   1.264       .  A
C132        O137   1.264       .  A
C132        C495   1.435       .  S
O133        C139   1.265       .  A
O133       Cd136   2.478       .  S
C134        O142   1.263       .  A
C134       C1037   1.436       .  S
C135        O140   1.264       .  A
C135        O138   1.264       .  A
C135        C491   1.433       .  S
Cd136       O143   2.449       .  S
Cd136       O142   2.455       .  S
Cd136       O141   2.466       .  S
Cd136       O137   2.465       .  S
Cd136       O140   2.467       .  S
Cd136       O138   2.455       .  S
C139        O143   1.263       .  A
C139        C502   1.435       .  S
O144        C147   1.264   1_655  A
O144       Cd149   2.465   1_655  S
C145        O154   1.263       .  A
C145        O150   1.265       .  A
C145        C496   1.436   1_455  S
O146        C152   1.265       .  A
O146       Cd149   2.478       .  S
C147        O155   1.264       .  A
C147        C494   1.435   1_455  S
C148        O153   1.264       .  A
C148        O151   1.264       .  A
C148        C489   1.433       .  S
Cd149       O156   2.449       .  S
Cd149       O155   2.465       .  S
Cd149       O154   2.455       .  S
Cd149       O150   2.480       .  S
Cd149       O153   2.467       .  S
Cd149       O151   2.455       .  S
C152        O156   1.263       .  A
C152        C500   1.435       .  S
O157        C160   1.264       .  A
O157       Cd162   2.465       .  S
C158        O167   1.263       .  A
C158        O163   1.265       .  A
C158        C488   1.436       .  S
O159        C165   1.265       .  A
O159       Cd162   2.478       .  S
C160        O168   1.264       .  A
C160        C485   1.435       .  S
C161        O166   1.264       .  A
C161        O164   1.264       .  A
C161        C518   1.433       .  S
Cd162       O169   2.449       .  S
Cd162       O168   2.466       .  S
Cd162       O167   2.455       .  S
Cd162       O163   2.480       .  S
Cd162       O166   2.466       .  S
Cd162       O164   2.455       .  S
C165        O169   1.263       .  A
C165        C484   1.435       .  S
O170        C173   1.265       .  A
O170       Cd175   2.480       .  S
C171        O180   1.264       .  A
C171        O176   1.264       .  A
C171        C487   1.435       .  S
O172        C178   1.265       .  A
O172       Cd175   2.478       .  S
C173        O181   1.263       .  A
C173        C486   1.436       .  S
C174        O179   1.264       .  A
C174        O177   1.264       .  A
C174        C492   1.433       .  S
Cd175       O182   2.449       .  S
Cd175       O181   2.455       .  S
Cd175       O179   2.466       .  S
Cd175       O177   2.455       .  S
Cd175       O724   2.466       .  S
Cd175       O720   2.465       .  S
O176       Cd719   2.465   1_554  S
C178        O182   1.263       .  A
C178        C481   1.435       .  S
O180       Cd719   2.466   1_554  S
O183        C186   1.264       .  A
O183       Cd188   2.465       .  S
C184        O193   1.263       .  A
C184        O189   1.265       .  A
C184        C480   1.436       .  S
O185        C191   1.265       .  A
O185       Cd188   2.478       .  S
C186        O194   1.264       .  A
C186        C478   1.436       .  S
C187        O192   1.264       .  A
C187        O190   1.264       .  A
C187        C475   1.433       .  S
Cd188       O195   2.449       .  S
Cd188       O194   2.466       .  S
Cd188       O193   2.455       .  S
Cd188       O189   2.480       .  S
Cd188       O192   2.466       .  S
Cd188       O190   2.456       .  S
C191        O195   1.263       .  A
C191        C483   1.435       .  S
O196        C199   1.265       .  A
O196       Cd201   2.480       .  S
C197        O206   1.264       .  A
C197        O202   1.264       .  A
C197        C479   1.435       .  S
O198        C204   1.265       .  A
O198       Cd201   2.478       .  S
C199        O207   1.263       .  A
C199        C477   1.436       .  S
C200        O205   1.264       .  A
C200        O203   1.264       .  A
C200        C474   1.433       .  S
Cd201       O208   2.449       .  S
Cd201       O207   2.455       .  S
Cd201       O205   2.467       .  S
Cd201       O203   2.454       .  S
Cd201       O750   2.466   1_554  S
Cd201       O746   2.465   1_554  S
O202       Cd745   2.465       .  S
C204        O208   1.263       .  A
C204        C482   1.435       .  S
O206       Cd745   2.466       .  S
O209        C212   1.265       .  A
O209       Cd214   2.480       .  S
C210        O219   1.264       .  A
C210        O215   1.264       .  A
C210        C469   1.435       .  S
O211        C217   1.265       .  A
O211       Cd214   2.479       .  S
C212        O220   1.263       .  A
C212        C472   1.436       .  S
C213        O218   1.264       .  A
C213        O216   1.264       .  A
C213        C465   1.433       .  S
Cd214       O221   2.449       .  S
Cd214       O220   2.455       .  S
Cd214       O218   2.467       .  S
Cd214       O216   2.455       .  S
Cd214       O763   2.466   1_554  S
Cd214       O759   2.465   1_554  S
O215       Cd758   2.465       .  S
C217        O221   1.263       .  A
C217        C467   1.435       .  S
O219       Cd758   2.466       .  S
O222        C225   1.264       .  A
O222       Cd227   2.465       .  S
C223        O232   1.263       .  A
C223        O228   1.265       .  A
C223        C470   1.436       .  S
O224        C230   1.265       .  A
O224       Cd227   2.478       .  S
C225        O233   1.264       .  A
C225        C471   1.435       .  S
C226        O231   1.264       .  A
C226        O229   1.264       .  A
C226        C462   1.433       .  S
Cd227       O234   2.449       .  S
Cd227       O233   2.466       .  S
Cd227       O232   2.454       .  S
Cd227       O228   2.480       .  S
Cd227       O231   2.466       .  S
Cd227       O229   2.455       .  S
C230        O234   1.263       .  A
C230        C463   1.434       .  S
O235        C238   1.265       .  A
O235       Cd240   2.480       .  S
C236        O245   1.264       .  A
C236        O241   1.264       .  A
C236        C457   1.435       .  S
O237        C243   1.265       .  A
O237       Cd240   2.478       .  S
C238        O246   1.263       .  A
C238        C459   1.436       .  S
C239        O244   1.264       .  A
C239        O242   1.264       .  A
C239        C514   1.433       .  S
Cd240       O247   2.449       .  S
Cd240       O246   2.455       .  S
Cd240       O244   2.467       .  S
Cd240       O242   2.456       .  S
Cd240       O789   2.466       .  S
Cd240       O785   2.465       .  S
O241       Cd784   2.465   1_554  S
C243        O247   1.263       .  A
C243        C468   1.435       .  S
O245       Cd784   2.466   1_554  S
O248        C251   1.265       .  A
O248       Cd253   2.480       .  S
C249        O258   1.264       .  A
C249        O254   1.264       .  A
C249        C460   1.435       .  S
O250        C256   1.264       .  A
O250       Cd253   2.466       .  S
C251        O259   1.263       .  A
C251        C458   1.436       .  S
C252        O257   1.265       .  A
C252        O255   1.263       .  A
C252        C464   1.434       .  S
Cd253       O260   2.455       .  S
Cd253       O259   2.455       .  S
Cd253       O258   2.465       .  S
Cd253       O254   2.465       .  S
Cd253       O257   2.478       .  S
Cd253       O255   2.448       .  S
C256        O260   1.264       .  A
C256        C490   1.433       .  S
O261        C264   1.264       .  A
O261       Cd266   2.465       .  S
C262        O271   1.263       .  A
C262        O267   1.265       .  A
C262        C455   1.436       .  S
O263        C269   1.264       .  A
O263       Cd266   2.467       .  S
C264        O272   1.264       .  A
C264        C453   1.435       .  S
C265        O270   1.265       .  A
C265        O268   1.263       .  A
C265        C451   1.434       .  S
Cd266       O273   2.454       .  S
Cd266       O272   2.465       .  S
Cd266       O271   2.455       .  S
Cd266       O267   2.480       .  S
Cd266       O270   2.478       .  S
Cd266       O268   2.449       .  S
C269        O273   1.264       .  A
C269        C450   1.433       .  S
O274        C277   1.264       .  A
O274       Cd823   2.465   1_554  S
C275        O284   1.263       .  A
C275        O280   1.265       .  A
C275        C454   1.436       .  S
O276        C282   1.265       .  A
O276       Cd279   2.478       .  S
C277        O285   1.264       .  A
C277        C456   1.435       .  S
C278        O283   1.264       .  A
C278        O281   1.264       .  A
C278        C445   1.433       .  S
Cd279       O286   2.448       .  S
Cd279       O284   2.454       .  S
Cd279       O280   2.480       .  S
Cd279       O283   2.466       .  S
Cd279       O281   2.455       .  S
Cd279       O818   2.465       .  S
Cd279       O829   2.466       .  S
C282        O286   1.263       .  A
C282        C448   1.434       .  S
O285       Cd823   2.466   1_554  S
O287        C290   1.265       .  A
O287       Cd292   2.479       .  S
C288        O297   1.264       .  A
C288        O293   1.264       .  A
C288        C442   1.435       .  S
O289        C295   1.265       .  A
O289       Cd292   2.478       .  S
C290        O298   1.263       .  A
C290        C443   1.436       .  S
C291        O296   1.264       .  A
C291        O294   1.264       .  A
C291        C508   1.433       .  S
Cd292       O299   2.449       .  S
Cd292       O298   2.454       .  S
Cd292       O297   2.465       .  S
Cd292       O293   2.465       .  S
Cd292       O296   2.466       .  S
Cd292       O294   2.454       .  S
C295        O299   1.263       .  A
C295        C452   1.434       .  S
O300        C303   1.264       .  A
O300       Cd849   2.464       .  S
C301        O310   1.263       .  A
C301        O306   1.265       .  A
C301        C441   1.436       .  S
O302        C308   1.265       .  A
O302       Cd305   2.478       .  S
C303        O311   1.264       .  A
C303        C444   1.435       .  S
C304        O309   1.264       .  A
C304        O307   1.264       .  A
C304        C498   1.433       .  S
Cd305       O312   2.448       .  S
Cd305       O310   2.454       .  S
Cd305       O306   2.479       .  S
Cd305       O309   2.466       .  S
Cd305       O307   2.454       .  S
Cd305       O844   2.464   1_554  S
Cd305       O855   2.465   1_554  S
C308        O312   1.263       .  A
C308        C447   1.434       .  S
O311       Cd849   2.465       .  S
O313        C316   1.265       .  A
O313       Cd318   2.480       .  S
C314        O323   1.264       .  A
C314        O319   1.264       .  A
C314        C437   1.435       .  S
O315        C321   1.265       .  A
O315       Cd318   2.477       .  S
C316        O324   1.263       .  A
C316        C984   1.436   1_554  S
C317        O322   1.264       .  A
C317        O320   1.264       .  A
C317        C473   1.433       .  S
Cd318       O325   2.448       .  S
Cd318       O324   2.455       .  S
Cd318       O323   2.466       .  S
Cd318       O319   2.465       .  S
Cd318       O322   2.466       .  S
Cd318       O320   2.455       .  S
C321        O325   1.263       .  A
C321        C436   1.434       .  S
O326        C329   1.264       .  A
O326       Cd331   2.465       .  S
C327        O336   1.263       .  A
C327        O332   1.265       .  A
C327        C438   1.436       .  S
O328        C334   1.265       .  A
O328       Cd331   2.479       .  S
C329        O337   1.264       .  A
C329        C439   1.435       .  S
C330        O335   1.264       .  A
C330        O333   1.264       .  A
C330        C461   1.433       .  S
Cd331       O338   2.449       .  S
Cd331       O337   2.465       .  S
Cd331       O336   2.455       .  S
Cd331       O332   2.480       .  S
Cd331       O335   2.467       .  S
Cd331       O333   2.455       .  S
C334        O338   1.263       .  A
C334        C434   1.435       .  S
O339        C342   1.265       .  A
O339       Cd344   2.480       .  S
C340        O349   1.264       .  A
C340        O345   1.264       .  A
C340        C429   1.435       .  S
O341        C347   1.265       .  A
O341       Cd344   2.478       .  S
C342        O350   1.263       .  A
C342        C431   1.436       .  S
C343        O348   1.264       .  A
C343        O346   1.264       .  A
C343        C525   1.433       .  S
Cd344       O351   2.448       .  S
Cd344       O350   2.454       .  S
Cd344       O349   2.466       .  S
Cd344       O345   2.465       .  S
Cd344       O348   2.466       .  S
Cd344       O346   2.455       .  S
C347        O351   1.263       .  A
C347        C435   1.434       .  S
O352        C355   1.265       .  A
O352       Cd357   2.480       .  S
C353        O362   1.264       .  A
C353        O358   1.264       .  A
C353        C432   1.435       .  S
O354        C360   1.264       .  A
O354       Cd357   2.467       .  S
C355        O363   1.263       .  A
C355        C974   1.436       .  S
C356        O361   1.265       .  A
C356        O359   1.263       .  A
C356        C433   1.435       .  S
Cd357       O364   2.455       .  S
Cd357       O363   2.455       .  S
Cd357       O362   2.465       .  S
Cd357       O358   2.465       .  S
Cd357       O361   2.478       .  S
Cd357       O359   2.450       .  S
C360        O364   1.264       .  A
C360        C446   1.433       .  S
O365        C368   1.265       .  A
O365       Cd370   2.480       .  S
C366        O375   1.264       .  A
C366        O371   1.264       .  A
C366        C427   1.435       .  S
O367        C373   1.264       .  A
O367       Cd370   2.467       .  S
C368        O376   1.263       .  A
C368        C425   1.436       .  S
C369        O374   1.265       .  A
C369        O372   1.263       .  A
C369        C423   1.435       .  S
Cd370       O377   2.455       .  S
Cd370       O376   2.455       .  S
Cd370       O375   2.465       .  S
Cd370       O371   2.465       .  S
Cd370       O374   2.478       .  S
Cd370       O372   2.449       .  S
C373        O377   1.264       .  A
C373        C476   1.433       .  S
O378        C381   1.265       .  A
O378       Cd383   2.480       .  S
C379        O388   1.264       .  A
C379        O384   1.264       .  A
C379        C426   1.435       .  S
O380        C386   1.265       .  A
O380       Cd383   2.478       .  S
C381        O389   1.263       .  A
C381        C972   1.436   1_554  S
C382        O387   1.264       .  A
C382        O385   1.264       .  A
C382        C466   1.433       .  S
Cd383       O390   2.448       .  S
Cd383       O389   2.454       .  S
Cd383       O388   2.466       .  S
Cd383       O384   2.465       .  S
Cd383       O387   2.466       .  S
Cd383       O385   2.455       .  S
C386        O390   1.263       .  A
C386        C422   1.434       .  S
O391        C394   1.265       .  A
O391       Cd396   2.480       .  S
C392        O401   1.264       .  A
C392        O397   1.264       .  A
C392        C417   1.435       .  S
O393        C399   1.265       .  A
O393       Cd396   2.477       .  S
C394        O402   1.263       .  A
C394        C419   1.436       .  S
C395        O400   1.264       .  A
C395        O398   1.264       .  A
C395        C449   1.433       .  S
Cd396       O403   2.448       .  S
Cd396       O402   2.455       .  S
Cd396       O401   2.466       .  S
Cd396       O397   2.465       .  S
Cd396       O400   2.466       .  S
Cd396       O398   2.455       .  S
C399        O403   1.263       .  A
C399        C421   1.434   1_545  S
O404        C407   1.264       .  A
O404       Cd409   2.465       .  S
C405        O414   1.263       .  A
C405        O410   1.265       .  A
C405        C962   1.436       .  S
O406        C412   1.265       .  A
O406       Cd409   2.478       .  S
C407        O415   1.264       .  A
C407        C420   1.435       .  S
C408        O413   1.264       .  A
C408        O411   1.264       .  A
C408        C528   1.433       .  S
Cd409       O416   2.449       .  S
Cd409       O415   2.465       .  S
Cd409       O414   2.455       .  S
Cd409       O410   2.480       .  S
Cd409       O413   2.467       .  S
Cd409       O411   2.455       .  S
C412        O416   1.263       .  A
C412        C424   1.435   1_545  S
C417        C418   1.206       .  T
C418        C949   1.436   1_554  S
C419        C420   1.206       .  T
C421        C422   1.205       .  T
C423        C424   1.206       .  T
C425        C426   1.206       .  T
C427        C428   1.206       .  T
C428        C925   1.436       .  S
C429        C430   1.206       .  T
C430        C899   1.436   1_554  S
C431        C432   1.206       .  T
C433        C434   1.206       .  T
C435        C436   1.205       .  T
C437        C438   1.206       .  T
C439        C440   1.206       .  T
C440        C860   1.436       .  S
C441        C442   1.206       .  T
C443        C444   1.206       .  T
C445        C446   1.205       .  T
C447        C992   1.205   1_554  T
C448        C991   1.205       .  T
C449        C450   1.205       .  T
C451        C452   1.205       .  T
C453        C454   1.206       .  T
C455        C456   1.206       .  T
C457        C458   1.206       .  T
C459        C460   1.206       .  T
C461        C462   1.205       .  T
C463        C464   1.205       .  T
C465        C466   1.205       .  T
C467       C1012   1.206   1_554  T
C468       C1011   1.206       .  T
C469        C470   1.206       .  T
C471        C472   1.206       .  T
C473        C474   1.205       .  T
C475        C476   1.205       .  T
C477        C478   1.206       .  T
C479        C480   1.206       .  T
C481       C1026   1.205       .  T
C482       C1025   1.205   1_554  T
C483        C484   1.205       .  T
C485        C486   1.206       .  T
C487        C488   1.206       .  T
C489        C490   1.205       .  T
C491        C492   1.205       .  T
C493        C678   1.436   1_554  S
C493        C494   1.206       .  T
C495        C496   1.206       .  T
C497        C498   1.204       .  T
C499        C500   1.205       .  T
C501        C502   1.206       .  T
C503        C504   1.206       .  T
C505        C506   1.206       .  T
C506        C663   1.436   1_655  S
C507        C508   1.204       .  T
C509        C624   1.436       .  S
C509        C510   1.206       .  T
C511        C512   1.206       .  T
C513        C514   1.205       .  T
C515        C516   1.205       .  T
C517        C518   1.205       .  T
C519        C520   1.205       .  T
C521        C522   1.206       .  T
C523        C524   1.206       .  T
C524        C613   1.436   1_654  S
C525        C526   1.205       .  T
C527        C528   1.205       .  T
C529        C530   1.206       .  T
C531        C532   1.206       .  T
C533        C534   1.205       .  T
C535        C536   1.205       .  T
C537        C538   1.205       .  T
C539       C1084   1.205   1_554  T
C540       C1083   1.205       .  T
C541        C542   1.206       .  T
C543        C544   1.206       .  T
O545        C548   1.264       .  A
C546        O555   1.263       .  A
C546        O551   1.265       .  A
C546       C1087   1.436       .  S
O547        C553   1.265       .  A
O547       Cd550   2.478       .  S
C548        O556   1.264       .  A
C548       C1085   1.435       .  S
C549        O554   1.264       .  A
C549        O552   1.264       .  A
C549       C1082   1.433       .  S
Cd550       O557   2.449       .  S
Cd550       O555   2.455       .  S
Cd550       O551   2.480       .  S
Cd550       O554   2.466       .  S
Cd550       O552   2.454       .  S
C553        O557   1.263       .  A
C553       C1083   1.435       .  S
O558        C561   1.265       .  A
O558       Cd563   2.479       .  S
C559        O568   1.264       .  A
C559        O564   1.264       .  A
C559       C1088   1.435       .  S
O560        C566   1.265       .  A
O560       Cd563   2.478       .  S
C561        O569   1.263       .  A
C561       C1086   1.436       .  S
C562        O567   1.264       .  A
C562        O565   1.264       .  A
C562       C1078   1.433       .  S
Cd563       O570   2.449       .  S
Cd563       O569   2.455       .  S
Cd563       O568   2.466       .  S
Cd563       O564   2.465       .  S
Cd563       O567   2.467       .  S
Cd563       O565   2.455       .  S
C566        O570   1.263       .  A
C566       C1080   1.435       .  S
O571        C574   1.264       .  A
C572        O581   1.263       .  A
C572        O577   1.265       .  A
C572       C1073   1.436       .  S
O573        C579   1.265       .  A
O573       Cd576   2.478       .  S
C574        O582   1.264       .  A
C574       C1075   1.435       .  S
C575        O580   1.264       .  A
C575        O578   1.264       .  A
C575       C1071   1.433       .  S
Cd576       O583   2.448       .  S
Cd576       O581   2.454       .  S
Cd576       O577   2.480       .  S
Cd576       O580   2.466       .  S
Cd576       O578   2.456       .  S
C579        O583   1.263       .  A
C579       C1084   1.435       .  S
O584        C587   1.265       .  A
O584       Cd589   2.480       .  S
C585        O594   1.264       .  A
C585        O590   1.264       .  A
C585       C1074   1.435       .  S
O586        C592   1.265       .  A
O586       Cd589   2.478       .  S
C587        O595   1.263       .  A
C587       C1076   1.436       .  S
C588        O593   1.264       .  A
C588        O591   1.264       .  A
C588       C1070   1.433       .  S
Cd589       O596   2.448       .  S
Cd589       O595   2.454       .  S
Cd589       O594   2.465       .  S
Cd589       O590   2.464       .  S
Cd589       O593   2.466       .  S
Cd589       O591   2.454       .  S
C592        O596   1.263       .  A
C592       C1079   1.435       .  S
O597        C600   1.264       .  A
O597       Cd602   2.465       .  S
C598        O607   1.263       .  A
C598        O603   1.265       .  A
C598       C1066   1.436       .  S
O599        C605   1.265       .  A
O599       Cd602   2.478       .  S
C600        O608   1.264       .  A
C600       C1067   1.436       .  S
C601        O606   1.264       .  A
C601        O604   1.264       .  A
C601       C1061   1.433       .  S
Cd602       O609   2.449       .  S
Cd602       O608   2.466       .  S
Cd602       O607   2.455       .  S
Cd602       O603   2.480       .  S
Cd602       O606   2.467       .  S
Cd602       O604   2.455       .  S
C605        O609   1.263       .  A
C605       C1064   1.434       .  S
O610        C613   1.265       .  A
O610       Cd615   2.480       .  S
C611        O620   1.264       .  A
C611        O616   1.264   1_455  A
C611       C1065   1.435   1_455  S
O612        C618   1.265       .  A
O612       Cd615   2.478       .  S
C613        O621   1.263       .  A
C614        O619   1.264       .  A
C614        O617   1.264       .  A
C614       C1057   1.433       .  S
Cd615       O622   2.449       .  S
Cd615       O621   2.455       .  S
Cd615       O620   2.465       .  S
Cd615       O616   2.465   1_455  S
Cd615       O619   2.467       .  S
Cd615       O617   2.455       .  S
C618        O622   1.263       .  A
C618       C1059   1.435       .  S
O623        C626   1.264       .  A
O623       Cd628   2.465       .  S
C624        O633   1.263       .  A
C624        O629   1.265       .  A
O625        C631   1.265       .  A
O625       Cd628   2.478       .  S
C626        O634   1.264       .  A
C626       C1055   1.435       .  S
C627        O632   1.264       .  A
C627        O630   1.264       .  A
C627       C1081   1.433       .  S
Cd628       O635   2.448       .  S
Cd628       O634   2.465       .  S
Cd628       O633   2.454       .  S
Cd628       O629   2.479       .  S
Cd628       O632   2.466       .  S
Cd628       O630   2.455       .  S
C631        O635   1.263       .  A
C631       C1063   1.434   1_545  S
O636        C639   1.265       .  A
O636       Cd641   2.480       .  S
C637        O646   1.264       .  A
C637        O642   1.264   1_455  A
C637       C1054   1.435   1_455  S
O638        C644   1.265       .  A
O638       Cd641   2.478       .  S
C639        O647   1.263       .  A
C639       C1056   1.436   1_455  S
C640        O645   1.264       .  A
C640        O643   1.264       .  A
C640       C1051   1.433       .  S
Cd641       O648   2.449       .  S
Cd641       O647   2.454       .  S
Cd641       O646   2.465       .  S
Cd641       O642   2.464   1_455  S
Cd641       O645   2.466       .  S
Cd641       O643   2.455       .  S
C644        O648   1.263       .  A
C644       C1060   1.435   1_545  S
O649        C652   1.264       .  A
O649       Cd654   2.480       .  S
C650        O659   1.264       .  A
C650        O655   1.264       .  A
C650       C1049   1.435       .  S
O651        C657   1.265       .  A
O651       Cd654   2.478       .  S
C652        O660   1.263       .  A
C652       C1047   1.436       .  S
C653        O658   1.264       .  A
C653        O656   1.264       .  A
C653       C1077   1.433       .  S
Cd654       O661   2.449       .  S
Cd654       O660   2.455       .  S
Cd654       O659   2.466       .  S
Cd654       O655   2.465       .  S
Cd654       O658   2.466       .  S
Cd654       O656   2.455       .  S
C657        O661   1.263       .  A
C657       C1045   1.435       .  S
O662        C665   1.264   1_655  A
O662       Cd667   2.465   1_655  S
C663        O672   1.263       .  A
C663        O668   1.265       .  A
O664        C670   1.265       .  A
O664       Cd667   2.478       .  S
C665        O673   1.264       .  A
C665       C1048   1.435   1_455  S
C666        O671   1.264       .  A
C666        O669   1.264       .  A
C666       C1041   1.433       .  S
Cd667       O674   2.449       .  S
Cd667       O673   2.465       .  S
Cd667       O672   2.454       .  S
Cd667       O668   2.480       .  S
Cd667       O671   2.466       .  S
Cd667       O669   2.454       .  S
C670        O674   1.263       .  A
C670       C1043   1.435       .  S
O675        C678   1.265       .  A
O675       Cd680   2.480       .  S
C676        O685   1.264       .  A
C676        O681   1.264       .  A
C676       C1039   1.435       .  S
O677        C683   1.265       .  A
O677       Cd680   2.479       .  S
C678        O686   1.263       .  A
C679        O684   1.264       .  A
C679        O682   1.264       .  A
C679       C1035   1.433       .  S
Cd680       O687   2.449       .  S
Cd680       O686   2.455       .  S
Cd680       O685   2.466       .  S
Cd680       O681   2.465       .  S
Cd680       O684   2.467       .  S
Cd680       O682   2.455       .  S
C683        O687   1.263       .  A
C683       C1046   1.435       .  S
O688        C691   1.264   1_655  A
O688       Cd693   2.465   1_655  S
C689        O698   1.263       .  A
C689        O694   1.265       .  A
C689       C1040   1.436   1_455  S
O690        C696   1.265       .  A
O690       Cd693   2.478       .  S
C691        O699   1.264       .  A
C691       C1038   1.435   1_455  S
C692        O697   1.264       .  A
C692        O695   1.264       .  A
C692       C1033   1.433       .  S
Cd693       O700   2.449       .  S
Cd693       O699   2.465       .  S
Cd693       O698   2.455       .  S
Cd693       O694   2.480       .  S
Cd693       O697   2.467       .  S
Cd693       O695   2.455       .  S
C696        O700   1.263       .  A
C696       C1044   1.435       .  S
O701        C704   1.264       .  A
O701       Cd706   2.465       .  S
C702        O711   1.263       .  A
C702        O707   1.265       .  A
C702       C1032   1.436       .  S
O703        C709   1.265       .  A
O703       Cd706   2.478       .  S
C704        O712   1.264       .  A
C704       C1029   1.435       .  S
C705        O710   1.264       .  A
C705        O708   1.264       .  A
C705       C1062   1.433       .  S
Cd706       O713   2.449       .  S
Cd706       O712   2.466       .  S
Cd706       O711   2.455       .  S
Cd706       O707   2.480       .  S
Cd706       O710   2.466       .  S
Cd706       O708   2.455       .  S
C709        O713   1.263       .  A
C709       C1028   1.435       .  S
O714        C717   1.265       .  A
O714       Cd719   2.480       .  S
C715        O724   1.264       .  A
C715        O720   1.264       .  A
C715       C1031   1.435       .  S
O716        C722   1.265       .  A
O716       Cd719   2.478       .  S
C717        O725   1.263       .  A
C717       C1030   1.436       .  S
C718        O723   1.264       .  A
C718        O721   1.264       .  A
C718       C1036   1.433       .  S
Cd719       O726   2.449       .  S
Cd719       O725   2.455       .  S
Cd719       O723   2.466       .  S
Cd719       O721   2.455       .  S
C722        O726   1.263       .  A
C722       C1025   1.435       .  S
O727        C730   1.264       .  A
O727       Cd732   2.465       .  S
C728        O737   1.263       .  A
C728        O733   1.265       .  A
C728       C1024   1.436       .  S
O729        C735   1.265       .  A
O729       Cd732   2.478       .  S
C730        O738   1.264       .  A
C730       C1022   1.436       .  S
C731        O736   1.264       .  A
C731        O734   1.264       .  A
C731       C1019   1.433       .  S
Cd732       O739   2.449       .  S
Cd732       O738   2.466       .  S
Cd732       O737   2.455       .  S
Cd732       O733   2.480       .  S
Cd732       O736   2.466       .  S
Cd732       O734   2.456       .  S
C735        O739   1.263       .  A
C735       C1027   1.435       .  S
O740        C743   1.265       .  A
O740       Cd745   2.480       .  S
C741        O750   1.264       .  A
C741        O746   1.264       .  A
C741       C1023   1.435       .  S
O742        C748   1.265       .  A
O742       Cd745   2.478       .  S
C743        O751   1.263       .  A
C743       C1021   1.436       .  S
C744        O749   1.264       .  A
C744        O747   1.264       .  A
C744       C1018   1.433       .  S
Cd745       O752   2.449       .  S
Cd745       O751   2.455       .  S
Cd745       O749   2.467       .  S
Cd745       O747   2.454       .  S
C748        O752   1.263       .  A
C748       C1026   1.435       .  S
O753        C756   1.265       .  A
O753       Cd758   2.480       .  S
C754        O763   1.264       .  A
C754        O759   1.264       .  A
C754       C1013   1.435       .  S
O755        C761   1.265       .  A
O755       Cd758   2.479       .  S
C756        O764   1.263       .  A
C756       C1016   1.436       .  S
C757        O762   1.264       .  A
C757        O760   1.264       .  A
C757       C1009   1.433       .  S
Cd758       O765   2.449       .  S
Cd758       O764   2.455       .  S
Cd758       O762   2.467       .  S
Cd758       O760   2.455       .  S
C761        O765   1.263       .  A
C761       C1011   1.435       .  S
O766        C769   1.264       .  A
O766       Cd771   2.465       .  S
C767        O776   1.263       .  A
C767        O772   1.265       .  A
C767       C1014   1.436       .  S
O768        C774   1.265       .  A
O768       Cd771   2.478       .  S
C769        O777   1.264       .  A
C769       C1015   1.435       .  S
C770        O775   1.264       .  A
C770        O773   1.264       .  A
C770       C1006   1.433       .  S
Cd771       O778   2.449       .  S
Cd771       O777   2.466       .  S
Cd771       O776   2.454       .  S
Cd771       O772   2.480       .  S
Cd771       O775   2.466       .  S
Cd771       O773   2.455       .  S
C774        O778   1.263       .  A
C774       C1007   1.434       .  S
O779        C782   1.265       .  A
O779       Cd784   2.480       .  S
C780        O789   1.264       .  A
C780        O785   1.264       .  A
C780       C1001   1.435       .  S
O781        C787   1.265       .  A
O781       Cd784   2.478       .  S
C782        O790   1.263       .  A
C782       C1003   1.436       .  S
C783        O788   1.264       .  A
C783        O786   1.264       .  A
C783       C1058   1.433       .  S
Cd784       O791   2.449       .  S
Cd784       O790   2.455       .  S
Cd784       O788   2.467       .  S
Cd784       O786   2.456       .  S
C787        O791   1.263       .  A
C787       C1012   1.435       .  S
O792        C795   1.265       .  A
O792       Cd797   2.480       .  S
C793        O802   1.264       .  A
C793        O798   1.264       .  A
C793       C1004   1.435       .  S
O794        C800   1.264       .  A
O794       Cd797   2.466       .  S
C795        O803   1.263       .  A
C795       C1002   1.436       .  S
C796        O801   1.265       .  A
C796        O799   1.263       .  A
C796       C1008   1.434       .  S
Cd797       O804   2.455       .  S
Cd797       O803   2.455       .  S
Cd797       O802   2.465       .  S
Cd797       O798   2.465       .  S
Cd797       O801   2.478       .  S
Cd797       O799   2.448       .  S
C800        O804   1.264       .  A
C800       C1034   1.433       .  S
O805        C808   1.264       .  A
O805       Cd810   2.465       .  S
C806        O815   1.263       .  A
C806        O811   1.265       .  A
C806        C999   1.436       .  S
O807        C813   1.264       .  A
O807       Cd810   2.467       .  S
C808        O816   1.264       .  A
C808        C997   1.435       .  S
C809        O814   1.265       .  A
C809        O812   1.263       .  A
C809        C995   1.434       .  S
Cd810       O817   2.454       .  S
Cd810       O816   2.465       .  S
Cd810       O815   2.455       .  S
Cd810       O811   2.480       .  S
Cd810       O814   2.478       .  S
Cd810       O812   2.449       .  S
C813        O817   1.264       .  A
C813        C994   1.433       .  S
O818        C821   1.264       .  A
C819        O828   1.263       .  A
C819        O824   1.265       .  A
C819        C998   1.436       .  S
O820        C826   1.265       .  A
O820       Cd823   2.478       .  S
C821        O829   1.264       .  A
C821       C1000   1.435       .  S
C822        O827   1.264       .  A
C822        O825   1.264       .  A
C822        C989   1.433       .  S
Cd823       O830   2.448       .  S
Cd823       O828   2.454       .  S
Cd823       O824   2.480       .  S
Cd823       O827   2.466       .  S
Cd823       O825   2.455       .  S
C826        O830   1.263       .  A
C826        C992   1.434       .  S
O831        C834   1.265       .  A
O831       Cd836   2.479       .  S
C832        O841   1.264       .  A
C832        O837   1.264       .  A
C832        C986   1.435       .  S
O833        C839   1.265       .  A
O833       Cd836   2.478       .  S
C834        O842   1.263       .  A
C834        C987   1.436       .  S
C835        O840   1.264       .  A
C835        O838   1.264       .  A
C835       C1052   1.433       .  S
Cd836       O843   2.449       .  S
Cd836       O842   2.454       .  S
Cd836       O841   2.465       .  S
Cd836       O837   2.465       .  S
Cd836       O840   2.466       .  S
Cd836       O838   2.454       .  S
C839        O843   1.263       .  A
C839        C996   1.434       .  S
O844        C847   1.264       .  A
C845        O854   1.263       .  A
C845        O850   1.265       .  A
C845        C985   1.436       .  S
O846        C852   1.265       .  A
O846       Cd849   2.478       .  S
C847        O855   1.264       .  A
C847        C988   1.435       .  S
C848        O853   1.264       .  A
C848        O851   1.264       .  A
C848       C1042   1.433       .  S
Cd849       O856   2.448       .  S
Cd849       O854   2.454       .  S
Cd849       O850   2.479       .  S
Cd849       O853   2.466       .  S
Cd849       O851   2.454       .  S
C852        O856   1.263       .  A
C852        C991   1.434       .  S
O857        C860   1.265       .  A
O857       Cd862   2.480       .  S
C858        O867   1.264       .  A
C858        O863   1.264       .  A
C858        C981   1.435       .  S
O859        C865   1.265       .  A
O859       Cd862   2.477       .  S
C860        O868   1.263       .  A
C861        O866   1.264       .  A
C861        O864   1.264       .  A
C861       C1017   1.433       .  S
Cd862       O869   2.448       .  S
Cd862       O868   2.455       .  S
Cd862       O867   2.466       .  S
Cd862       O863   2.465       .  S
Cd862       O866   2.466       .  S
Cd862       O864   2.455       .  S
C865        O869   1.263       .  A
C865        C980   1.434       .  S
O870        C873   1.264       .  A
O870       Cd875   2.465       .  S
C871        O880   1.263       .  A
C871        O876   1.265       .  A
C871        C982   1.436       .  S
O872        C878   1.265       .  A
O872       Cd875   2.479       .  S
C873        O881   1.264       .  A
C873        C983   1.435       .  S
C874        O879   1.264       .  A
C874        O877   1.264       .  A
C874       C1005   1.433       .  S
Cd875       O882   2.449       .  S
Cd875       O881   2.465       .  S
Cd875       O880   2.455       .  S
Cd875       O876   2.480       .  S
Cd875       O879   2.467       .  S
Cd875       O877   2.455       .  S
C878        O882   1.263       .  A
C878        C978   1.435       .  S
O883        C886   1.265       .  A
O883       Cd888   2.480       .  S
C884        O893   1.264       .  A
C884        O889   1.264       .  A
C884        C973   1.435       .  S
O885        C891   1.265       .  A
O885       Cd888   2.478       .  S
C886        O894   1.263       .  A
C886        C975   1.436       .  S
C887        O892   1.264       .  A
C887        O890   1.264       .  A
C887       C1069   1.433       .  S
Cd888       O895   2.448       .  S
Cd888       O894   2.454       .  S
Cd888       O893   2.466       .  S
Cd888       O889   2.465       .  S
Cd888       O892   2.466       .  S
Cd888       O890   2.455       .  S
C891        O895   1.263       .  A
C891        C979   1.434       .  S
O896        C899   1.265       .  A
O896       Cd901   2.480       .  S
C897        O906   1.264       .  A
C897        O902   1.264       .  A
C897        C976   1.435       .  S
O898        C904   1.264       .  A
O898       Cd901   2.467       .  S
C899        O907   1.263       .  A
C900        O905   1.265       .  A
C900        O903   1.263       .  A
C900        C977   1.435       .  S
Cd901       O908   2.455       .  S
Cd901       O907   2.455       .  S
Cd901       O906   2.465       .  S
Cd901       O902   2.465       .  S
Cd901       O905   2.478       .  S
Cd901       O903   2.450       .  S
C904        O908   1.264       .  A
C904        C990   1.433       .  S
O909        C912   1.265       .  A
O909       Cd914   2.480       .  S
C910        O919   1.264       .  A
C910        O915   1.264       .  A
C910        C971   1.435       .  S
O911        C917   1.264       .  A
O911       Cd914   2.467       .  S
C912        O920   1.263       .  A
C912        C969   1.436       .  S
C913        O918   1.265       .  A
C913        O916   1.263       .  A
C913        C967   1.435       .  S
Cd914       O921   2.455       .  S
Cd914       O920   2.455       .  S
Cd914       O919   2.465       .  S
Cd914       O915   2.465       .  S
Cd914       O918   2.478       .  S
Cd914       O916   2.449       .  S
C917        O921   1.264       .  A
C917       C1020   1.433       .  S
O922        C925   1.265       .  A
O922       Cd927   2.480       .  S
C923        O932   1.264       .  A
C923        O928   1.264       .  A
C923        C970   1.435       .  S
O924        C930   1.265       .  A
O924       Cd927   2.478       .  S
C925        O933   1.263       .  A
C926        O931   1.264       .  A
C926        O929   1.264       .  A
C926       C1010   1.433       .  S
Cd927       O934   2.448       .  S
Cd927       O933   2.454       .  S
Cd927       O932   2.466       .  S
Cd927       O928   2.465       .  S
Cd927       O931   2.466       .  S
Cd927       O929   2.455       .  S
C930        O934   1.263       .  A
C930        C966   1.434       .  S
O935        C938   1.265       .  A
O935       Cd940   2.480       .  S
C936        O945   1.264       .  A
C936        O941   1.264       .  A
C936        C961   1.435       .  S
O937        C943   1.265       .  A
O937       Cd940   2.477       .  S
C938        O946   1.263       .  A
C938        C963   1.436       .  S
C939        O944   1.264       .  A
C939        O942   1.264       .  A
C939        C993   1.433       .  S
Cd940       O947   2.448       .  S
Cd940       O946   2.455       .  S
Cd940       O945   2.466       .  S
Cd940       O941   2.465       .  S
Cd940       O944   2.466       .  S
Cd940       O942   2.455       .  S
C943        O947   1.263       .  A
C943        C965   1.434   1_545  S
O948        C951   1.264       .  A
O948       Cd953   2.465       .  S
C949        O958   1.263       .  A
C949        O954   1.265       .  A
O950        C956   1.265       .  A
O950       Cd953   2.478       .  S
C951        O959   1.264       .  A
C951        C964   1.435       .  S
C952        O957   1.264       .  A
C952        O955   1.264       .  A
C952       C1072   1.433       .  S
Cd953       O960   2.449       .  S
Cd953       O959   2.465       .  S
Cd953       O958   2.455       .  S
Cd953       O954   2.480       .  S
Cd953       O957   2.467       .  S
Cd953       O955   2.455       .  S
C956        O960   1.263       .  A
C956        C968   1.435   1_545  S
C961        C962   1.206       .  T
C963        C964   1.206       .  T
C965        C966   1.205       .  T
C967        C968   1.206       .  T
C969        C970   1.206       .  T
C971        C972   1.206       .  T
C973        C974   1.206       .  T
C975        C976   1.206       .  T
C977        C978   1.206       .  T
C979        C980   1.205       .  T
C981        C982   1.206       .  T
C983        C984   1.206       .  T
C985        C986   1.206       .  T
C987        C988   1.206       .  T
C989        C990   1.205       .  T
C993        C994   1.205       .  T
C995        C996   1.205       .  T
C997        C998   1.206       .  T
C999       C1000   1.206       .  T
C1001      C1002   1.206       .  T
C1003      C1004   1.206       .  T
C1005      C1006   1.205       .  T
C1007      C1008   1.205       .  T
C1009      C1010   1.205       .  T
C1013      C1014   1.206       .  T
C1015      C1016   1.206       .  T
C1017      C1018   1.205       .  T
C1019      C1020   1.205       .  T
C1021      C1022   1.206       .  T
C1023      C1024   1.206       .  T
C1027      C1028   1.205       .  T
C1029      C1030   1.206       .  T
C1031      C1032   1.206       .  T
C1033      C1034   1.205       .  T
C1035      C1036   1.205       .  T
C1037      C1038   1.206       .  T
C1039      C1040   1.206       .  T
C1041      C1042   1.204       .  T
C1043      C1044   1.205       .  T
C1045      C1046   1.206       .  T
C1047      C1048   1.206       .  T
C1049      C1050   1.206       .  T
C1051      C1052   1.205       .  T
C1053      C1054   1.206       .  T
C1055      C1056   1.206       .  T
C1057      C1058   1.205       .  T
C1059      C1060   1.205       .  T
C1061      C1062   1.205       .  T
C1063      C1064   1.205       .  T
C1065      C1066   1.206       .  T
C1067      C1068   1.206       .  T
C1069      C1070   1.205       .  T
C1071      C1072   1.205       .  T
C1073      C1074   1.206       .  T
C1075      C1076   1.206       .  T
C1077      C1078   1.205       .  T
C1079      C1080   1.205       .  T
C1081      C1082   1.205       .  T
C1085      C1086   1.206       .  T
C1087      C1088   1.206       .  T
