geometry optimzed in LAMMPS
_audit_creation_date              2020-12-01 
_audit_creation_method            'lammps2cif' 
_symmetry_space_group_name_H-M    'P1' 
_symmetry_Int_Tables_number       1 
_symmetry_cell_setting            triclinic 
loop_ 
_symmetry_equiv_pos_as_xyz 
  x,y,z 
_cell_length_a                    50.71412961 
_cell_length_b                    57.36988474315998 
_cell_length_c                    54.12107390492425 
_cell_angle_alpha                 89.72895125303995 
_cell_angle_beta                  89.97912269775294 
_cell_angle_gamma                 89.88363279693867 
loop_ 
_atom_site_label 
_atom_site_type_symbol 
_atom_site_fract_x 
_atom_site_fract_y 
_atom_site_fract_z 
_atom_site_charge 
C1          C  0.07494553  0.68806181  0.93913743     0.03400
C2          C  0.06471587  0.69470372  0.91628017    -0.12700
C3          C  0.04124421  0.68539538  0.90719950     0.00900
C4          C  0.02750371  0.66839834  0.92134159    -0.11200
C5          C  0.03743426  0.66117080  0.94476665     0.03400
C6          C  0.06155970  0.67107209  0.95313609    -0.10700
H7          H  0.07494396  0.70790632  0.90552423     0.09000
H8          H  0.00885200  0.66172614  0.91472094     0.06600
H9          H  0.06942656  0.66634381  0.97108413     0.06400
C10         C  0.87861568  0.68997523  0.93878665     0.03400
C11         C  0.89109531  0.67247090  0.95278367    -0.12700
C12         C  0.91486639  0.66182039  0.94461529     0.00900
C13         C  0.92533788  0.66879447  0.92131716    -0.11200
C14         C  0.91247968  0.68638897  0.90718837     0.03400
C15         C  0.88938088  0.69656306  0.91618052    -0.10700
H16         H  0.88264731  0.66776306  0.97050462     0.09000
H17         H  0.94373249  0.66144266  0.91478620     0.06600
H18         H  0.87973359  0.71014938  0.90544987     0.06400
C19         C  0.91122856  0.68010452  0.14741064     0.03400
C20         C  0.92425762  0.66377874  0.13211147    -0.12700
C21         C  0.91317524  0.65742694  0.10902120     0.00900
C22         C  0.88845429  0.66734031  0.10211453    -0.11200
C23         C  0.87545530  0.68356257  0.11739978     0.03400
C24         C  0.88699202  0.68947152  0.13991292    -0.10700
H25         H  0.94343406  0.65713834  0.13748517     0.09000
H26         H  0.87981631  0.66320894  0.08436450     0.06600
H27         H  0.87727029  0.70219878  0.15158380     0.06400
C28         C  0.03592792  0.68441492  0.14546793     0.03400
C29         C  0.02320039  0.66728680  0.13099381    -0.12700
C30         C  0.03431720  0.66038500  0.10807902     0.00900
C31         C  0.05847335  0.67087541  0.10045761    -0.11200
C32         C  0.07093548  0.68793072  0.11494764     0.03400
C33         C  0.05970202  0.69402440  0.13744288    -0.10700
H34         H  0.00440827  0.66028471  0.13693040     0.09000
H35         H  0.06712797  0.66647436  0.08277596     0.06600
H36         H  0.06934522  0.70706070  0.14874902     0.06400
C37         C  0.91150745  0.51701327  0.14507424     0.03400
C38         C  0.92480226  0.53391204  0.13049898    -0.12700
C39         C  0.91475139  0.54032611  0.10691222     0.00900
C40         C  0.89092206  0.52981858  0.09885122    -0.11200
C41         C  0.87783545  0.51304863  0.11338705     0.03400
C42         C  0.88816227  0.50714116  0.13640250    -0.10700
H43         H  0.94328454  0.54109483  0.13692411     0.09000
H44         H  0.88290982  0.53407923  0.08082808     0.06600
H45         H  0.87804924  0.49429823  0.14772205     0.06400
C46         C  0.87546394  0.52153347  0.93087864     0.03400
C47         C  0.88859931  0.53656562  0.94731015    -0.12700
C48         C  0.91367663  0.54612810  0.94133286     0.00900
C49         C  0.92521678  0.54028957  0.91824802    -0.11200
C50         C  0.91189666  0.52535264  0.90171180     0.03400
C51         C  0.88709011  0.51662088  0.90810208    -0.10700
H52         H  0.87978354  0.53998023  0.96516890     0.09000
H53         H  0.94487195  0.54631287  0.91372908     0.06600
H54         H  0.87732630  0.50462887  0.89565373     0.06400
C55         C  0.07359798  0.51556001  0.93770294     0.03400
C56         C  0.06082432  0.53258940  0.95196708    -0.12700
C57         C  0.03709182  0.54342970  0.94377286     0.00900
C58         C  0.02687853  0.53709565  0.92031793    -0.11200
C59         C  0.03997881  0.52003970  0.90593002     0.03400
C60         C  0.06317874  0.50975927  0.91478125    -0.10700
H61         H  0.06896713  0.53672943  0.96992147     0.09000
H62         H  0.00837609  0.54438712  0.91391900     0.06600
H63         H  0.07298495  0.49652377  0.90381444     0.06400
C64         C  0.04078871  0.51899138  0.14513964     0.03400
C65         C  0.02741702  0.53541173  0.13013208    -0.12700
C66         C  0.03786155  0.54179434  0.10677668     0.00900
C67         C  0.06218811  0.53158253  0.09920149    -0.11200
C68         C  0.07542014  0.51510364  0.11415456     0.03400
C69         C  0.06456759  0.50927126  0.13703968    -0.10700
H70         H  0.00861336  0.54235912  0.13613333     0.09000
H71         H  0.07043346  0.53580151  0.08126599     0.06600
H72         H  0.07458003  0.49658324  0.14866515     0.06400
O73         O  0.02692647  0.64903455  0.98542374    -0.75000
O74         O  0.00514768  0.63060606  0.95421201    -0.53900
C75         C  0.02206866  0.64575496  0.96232045     0.78700
O76         O  0.02818286  0.55381226  0.06595160    -0.59600
O77         O  0.00542276  0.57194697  0.09685419    -0.52600
C78         C  0.02276936  0.55700777  0.08893049     0.70800
O79         O  0.02754402  0.55503522  0.98449297    -0.74100
O80         O  0.00528160  0.57418628  0.95381547    -0.54700
C81         C  0.02226925  0.55877771  0.96155352     0.76800
O82         O  0.02551051  0.64855343  0.06733498    -0.59300
O83         O  0.00334512  0.62913589  0.09785905    -0.52400
C84         C  0.02001168  0.64481252  0.09021621     0.73400
Zr85       Zr  0.01322382  0.63553782  0.02632772     2.54700
O86         O  0.06112991  0.63259036  0.02656305    -0.79900
O87         O  0.01202651  0.67793068  0.02833952    -0.93300
Zr88       Zr  0.01481205  0.56807341  0.02542599     2.64700
O89         O  0.06226989  0.57448629  0.02448116    -0.98200
O90         O  0.01845371  0.52576874  0.02531603    -0.80300
O91         O  0.01472262  0.60224029  0.00062664    -0.83600
O92         O  0.01441453  0.60137170  0.05116816    -2.18400
O93         O  0.92329546  0.64737217  0.06767687    -0.67000
O94         O  0.94485642  0.62715147  0.09805552    -0.51600
C95         C  0.92815030  0.64287622  0.09059711     0.71700
O96         O  0.92308716  0.55527581  0.98326040    -0.59900
O97         O  0.94582867  0.57520718  0.95339932    -0.51900
C98         C  0.92851421  0.55991310  0.96042894     0.73500
O99         O  0.92462847  0.55245836  0.06607828    -0.71300
O100        O  0.94616870  0.57129464  0.09721429    -0.50000
C101        C  0.92959668  0.55584563  0.08916197     0.74900
O102        O  0.92352984  0.64842704  0.98523589    -0.66700
O103        O  0.94641492  0.63073360  0.95414231    -0.53900
C104        C  0.92925918  0.64573529  0.96219090     0.73300
Zr105      Zr  0.93550843  0.63409847  0.02634740     2.77500
O106        O  0.88830312  0.62654350  0.02797072    -0.97400
O107        O  0.92953752  0.67619184  0.02690544    -0.78200
Zr108      Zr  0.93717362  0.56647522  0.02495750     2.70100
O109        O  0.88914096  0.56779713  0.02545324    -0.79500
O110        O  0.94033016  0.52412635  0.02385516    -0.98600
Zr111      Zr  0.97560787  0.60219455  0.97562126     2.21500
Zr112      Zr  0.97511973  0.60014191  0.07598802     2.11100
O113        O  0.93596891  0.59978207  0.05082545    -2.47300
O114        O  0.93611607  0.60090576  0.00038945    -0.79300
O115        O  0.97434197  0.63462719  0.05072588    -0.71500
O116        O  0.97611520  0.56744128  0.00072859    -2.32400
O117        O  0.97447411  0.63585060  0.00198191    -2.28600
O118        O  0.97587667  0.56655842  0.04967687    -0.73200
H119        H  0.02985725  0.60151292  0.06156507     0.78800
H120        H  0.97634026  0.55373134  0.99044113     0.79900
H121        H  0.92042081  0.59936675  0.06111730     0.82100
H122        H  0.97432319  0.64999011  0.99224429     0.79700
H123        H  0.00011984  0.52023987  0.02323070     0.42700
H124        H  0.95171158  0.51997449  0.03807991     0.41700
H125        H  0.88438326  0.57339528  0.04215076     0.41400
H126        H  0.88062615  0.64083246  0.03525559     0.39300
H127        H  0.94758404  0.68246878  0.02884089     0.42400
H128        H  0.00531835  0.68311557  0.01203927     0.37200
H129        H  0.06541239  0.62250115  0.01231532     0.43300
H130        H  0.06638269  0.58252581  0.04014959     0.39700
H131        H  0.88247749  0.62686428  0.01051927     0.44700
H132        H  0.03079432  0.68266340  0.02843433     0.43400
H133        H  0.07000519  0.55873612  0.02652951     0.43500
H134        H  0.92255469  0.51861708  0.02867169     0.43900
C135        C  0.56652977  0.01529335  0.12132721     0.03400
C136        C  0.55095542  0.03016108  0.10676881    -0.12700
C137        C  0.53994679  0.02253207  0.08414481     0.00900
C138        C  0.54452880  0.99905512  0.07680773    -0.11200
C139        C  0.56020954  0.98404371  0.09174544     0.03400
C140        C  0.57059364  0.99240761  0.11392558    -0.10700
H141        H  0.54816066  0.04796781  0.11283573     0.09000
H142        H  0.53728397  0.99294558  0.05917522     0.06600
H143        H  0.58303423  0.98115416  0.12514609     0.06400
C144        C  0.56791855  0.01594192  0.92437357     0.03400
C145        C  0.55149796  0.03061012  0.93826597    -0.12700
C146        C  0.54201392  0.02377893  0.96181741     0.00900
C147        C  0.54870390  0.00135618  0.97093086    -0.11200
C148        C  0.56538945  0.98660246  0.95705229     0.03400
C149        C  0.57463896  0.99406031  0.93392799    -0.10700
H150        H  0.54685288  0.04776106  0.93098536     0.09000
H151        H  0.54218723  0.99591673  0.98912181     0.06600
H152        H  0.58752940  0.98274698  0.92336688     0.06400
C153        C  0.56483935  0.21754348  0.95570931     0.03400
C154        C  0.54910282  0.20229503  0.96996325    -0.12700
C155        C  0.54387539  0.17947688  0.96140421     0.00900
C156        C  0.55445352  0.17260059  0.93826899    -0.11200
C157        C  0.56965709  0.18807663  0.92404234     0.03400
C158        C  0.57444035  0.21038200  0.93277484    -0.10700
H159        H  0.54219168  0.20772116  0.98798528     0.09000
H160        H  0.55127467  0.15511138  0.93142797     0.06600
H161        H  0.58687319  0.22202947  0.92204914     0.06400
C162        C  0.57209093  0.21587018  0.08264625     0.03400
C163        C  0.58289449  0.20822728  0.10504644    -0.12700
C164        C  0.57561367  0.18697539  0.11556788     0.00900
C165        C  0.55747204  0.17277519  0.10303283    -0.11200
C166        C  0.54671617  0.17956586  0.07991089     0.03400
C167        C  0.55369285  0.20168148  0.07008752    -0.10700
H168        H  0.59687762  0.21924734  0.11464325     0.09000
H169        H  0.55225412  0.15608648  0.11109465     0.06600
H170        H  0.54587110  0.20734561  0.05242959     0.06400
C171        C  0.39191420  0.21830821  0.96437544     0.03400
C172        C  0.41035036  0.20367379  0.97665503    -0.12700
C173        C  0.41658622  0.18139429  0.96676937     0.00900
C174        C  0.40460983  0.17472582  0.94424104    -0.11200
C175        C  0.38642752  0.18932402  0.93219155     0.03400
C176        C  0.38056797  0.21095386  0.94224356    -0.10700
H177        H  0.41868434  0.20907153  0.99413147     0.09000
H178        H  0.40880737  0.15780686  0.93632008     0.06600
H179        H  0.36660819  0.22224710  0.93278162     0.06400
C180        C  0.39158328  0.01597527  0.92687923     0.03400
C181        C  0.40876126  0.03087737  0.93963498    -0.12700
C182        C  0.41930888  0.02441924  0.96295525     0.00900
C183        C  0.41261508  0.00228898  0.97295038    -0.11200
C184        C  0.39548685  0.98731189  0.95992997     0.03400
C185        C  0.38548253  0.99428237  0.93704008    -0.10700
H186        H  0.41302568  0.04787017  0.93179351     0.09000
H187        H  0.41955581  0.99724041  0.99113140     0.06600
H188        H  0.37186636  0.98293973  0.92739215     0.06400
C189        C  0.38982918  0.01695800  0.11757745     0.03400
C190        C  0.40777428  0.03122086  0.10480233    -0.12700
C191        C  0.41810347  0.02454646  0.08151692     0.00900
C192        C  0.41066058  0.00260945  0.07168079    -0.11200
C193        C  0.39269357  0.98823545  0.08470643     0.03400
C194        C  0.38273405  0.99559524  0.10745665    -0.10700
H195        H  0.41281328  0.04799046  0.11260871     0.09000
H196        H  0.41769086  0.99730010  0.05366297     0.06600
H197        H  0.36871941  0.98464602  0.11723384     0.06400
C198        C  0.39192227  0.21702659  0.07915997     0.03400
C199        C  0.38072211  0.21011164  0.10161156    -0.12700
C200        C  0.38732467  0.18891413  0.11259647     0.00900
C201        C  0.40557822  0.17425044  0.10083808    -0.11200
C202        C  0.41691927  0.18052577  0.07780697     0.03400
C203        C  0.41023125  0.20235261  0.06718633    -0.10700
H204        H  0.36649942  0.22140179  0.11062013     0.09000
H205        H  0.41026303  0.15759521  0.10930474     0.06600
H206        H  0.41827872  0.20744732  0.04942515     0.06400
O207        O  0.53095711  0.06180105  0.07268292    -0.75000
O208        O  0.50988753  0.03334320  0.05102404    -0.53900
C209        C  0.52591413  0.04016316  0.06811769     0.78700
O210        O  0.42860627  0.14152732  0.06948591    -0.59600
O211        O  0.45131022  0.16998651  0.04896342    -0.52600
C212        C  0.43350573  0.16306327  0.06447062     0.70800
O213        O  0.43021435  0.06350268  0.07241676    -0.74100
O214        O  0.45031058  0.03477187  0.05017400    -0.54700
C215        C  0.43410639  0.04187452  0.06705670     0.76800
O216        O  0.53475176  0.14064011  0.07075383    -0.59300
O217        O  0.51334477  0.16957527  0.04962508    -0.52400
C218        C  0.53037722  0.16233843  0.06577979     0.73400
Zr219      Zr  0.52071630  0.10152380  0.05842021     2.54700
O220        O  0.52072176  0.10265811  0.10336844    -0.79900
O221        O  0.56869908  0.09998996  0.05702728    -0.93300
Zr222      Zr  0.44352790  0.10241553  0.05877085     2.64700
O223        O  0.44719184  0.10412821  0.10360770    -0.98200
O224        O  0.39552419  0.10158044  0.05891324    -0.80300
O225        O  0.48180158  0.07868541  0.05906122    -0.83600
O226        O  0.48238926  0.12534496  0.05897698    -2.18400
O227        O  0.53407939  0.14044305  0.97216857    -0.67000
O228        O  0.51247082  0.16913013  0.99324383    -0.51600
C229        C  0.52914687  0.16204115  0.97674733     0.71700
O230        O  0.43080320  0.06357176  0.97187417    -0.59900
O231        O  0.45078703  0.03485517  0.99452459    -0.51900
C232        C  0.43482607  0.04193355  0.97739706     0.73500
O233        O  0.42868644  0.14219725  0.97510477    -0.71300
O234        O  0.45104186  0.17057293  0.99579403    -0.50000
C235        C  0.43332972  0.16378024  0.98020150     0.74900
O236        O  0.53235820  0.06280196  0.97213790    -0.66700
O237        O  0.51095836  0.03436339  0.99390407    -0.53900
C238        C  0.52736329  0.04126045  0.97705532     0.73300
Zr239      Zr  0.52012485  0.10180512  0.98572106     2.77500
O240        O  0.51670076  0.10321317  0.94078239    -0.97400
O241        O  0.56809785  0.10057212  0.98669710    -0.78200
Zr242      Zr  0.44298007  0.10261025  0.98604330     2.70100
O243        O  0.44427772  0.10462475  0.94110594    -0.79500
O244        O  0.39502955  0.10150974  0.98818543    -0.98600
Zr245      Zr  0.48123755  0.05538838  0.02237932     2.21500
Zr246      Zr  0.48242863  0.14883477  0.02213447     2.11100
O247        O  0.48178848  0.12554331  0.98547142    -2.47300
O248        O  0.48131646  0.07885987  0.98558513    -0.79300
O249        O  0.52125243  0.12485758  0.02202228    -0.71500
O250        O  0.44244627  0.07940655  0.02245900    -2.32400
O251        O  0.52073570  0.07846358  0.02210981    -2.28600
O252        O  0.44325412  0.12554580  0.02235525    -0.73200
H253        H  0.48254602  0.13515710  0.07342561     0.78800
H254        H  0.42680219  0.06983347  0.02258178     0.79900
H255        H  0.48165323  0.13540001  0.97095509     0.82100
H256        H  0.53610710  0.06850547  0.02204056     0.79700
H257        H  0.39048823  0.10666894  0.07572817     0.42700
H258        H  0.39087484  0.08721378  0.99772120     0.41700
H259        H  0.42570632  0.10723088  0.93615155     0.41400
H260        H  0.51413033  0.08687274  0.93553368     0.39300
H261        H  0.57289718  0.10861200  0.00218816     0.42400
H262        H  0.57393833  0.11416445  0.04776601     0.37200
H263        H  0.50240067  0.09877312  0.10811661     0.43300
H264        H  0.45664909  0.11883807  0.10704372     0.39700
H265        H  0.49951030  0.11079346  0.93744912     0.44700
H266        H  0.57290551  0.08693696  0.04578999     0.43400
H267        H  0.42897174  0.10705908  0.10940508     0.43500
H268        H  0.39027769  0.11442932  0.99941717     0.43900
C269        C  0.08031976  0.01733299  0.60914562     0.03400
C270        C  0.06597437  0.03173808  0.59282453    -0.12700
C271        C  0.04180079  0.02426600  0.58217723     0.00900
C272        C  0.03234594  0.00164797  0.58827053    -0.11200
C273        C  0.04698748  0.98702965  0.60440356     0.03400
C274        C  0.07090909  0.99487446  0.61395795    -0.10700
H275        H  0.07317187  0.04918449  0.58920574     0.09000
H276        H  0.01348317  0.99580831  0.58129053     0.06600
H277        H  0.08197522  0.98335141  0.62606622     0.06400
C278        C  0.87718284  0.01580121  0.61124032     0.03400
C279        C  0.89081124  0.03033568  0.59460986    -0.12700
C280        C  0.91509178  0.02327394  0.58382563     0.00900
C281        C  0.92495005  0.00065717  0.58974745    -0.11200
C282        C  0.91098431  0.98599248  0.60644097     0.03400
C283        C  0.88726011  0.99376985  0.61661269    -0.10700
H284        H  0.88293414  0.04756628  0.59088476     0.09000
H285        H  0.94376993  0.99498554  0.58245342     0.06600
H286        H  0.87677330  0.98265319  0.62957604     0.06400
C287        C  0.91688307  0.21694515  0.61077300     0.03400
C288        C  0.89310738  0.20962566  0.62113971    -0.12700
C289        C  0.88221474  0.18810746  0.61536085     0.00900
C290        C  0.89515489  0.17364158  0.59839220    -0.11200
C291        C  0.91934808  0.18034565  0.58746481     0.03400
C292        C  0.93011156  0.20243435  0.59363455    -0.10700
H293        H  0.88302295  0.22087354  0.63417769     0.09000
H294        H  0.88659997  0.15682588  0.59420203     0.06600
H295        H  0.94886573  0.20786986  0.58598487     0.06400
C296        C  0.04170771  0.21733241  0.60734866     0.03400
C297        C  0.06477933  0.20934780  0.61869725    -0.12700
C298        C  0.07389833  0.18679046  0.61525008     0.00900
C299        C  0.06038235  0.17197460  0.59898754    -0.11200
C300        C  0.03741194  0.17966061  0.58617063     0.03400
C301        C  0.02810681  0.20266801  0.59064538    -0.10700
H302        H  0.07500921  0.22050658  0.63169251     0.09000
H303        H  0.06756860  0.15431502  0.59676205     0.06600
H304        H  0.00992821  0.20867097  0.58224527     0.06400
C305        C  0.90653369  0.21674137  0.44260696     0.03400
C306        C  0.88324161  0.20838101  0.43210867    -0.12700
C307        C  0.87344481  0.18629375  0.43785428     0.00900
C308        C  0.88723614  0.17231498  0.45497277    -0.11200
C309        C  0.91121071  0.18002064  0.46586895     0.03400
C310        C  0.92047249  0.20268111  0.45980345    -0.10700
H311        H  0.87285108  0.21914625  0.41873668     0.09000
H312        H  0.87980566  0.15500442  0.45895259     0.06600
H313        H  0.93902536  0.20878900  0.46723232     0.06400
C314        C  0.87987215  0.01770356  0.43376812     0.03400
C315        C  0.89308347  0.03189161  0.45072638    -0.12700
C316        C  0.91710007  0.02462521  0.46178112     0.00900
C317        C  0.92734750  0.00226515  0.45556786    -0.11200
C318        C  0.91375818  0.98797076  0.43843147     0.03400
C319        C  0.89010706  0.99588029  0.42814899    -0.10700
H320        H  0.88492145  0.04894070  0.45468768     0.09000
H321        H  0.94602843  0.99648161  0.46312427     0.06600
H322        H  0.87973773  0.98502000  0.41497713     0.06400
C323        C  0.07609478  0.01912049  0.43146491     0.03400
C324        C  0.06635665  0.99690216  0.42681493    -0.12700
C325        C  0.04301908  0.98888733  0.43756906     0.00900
C326        C  0.02936863  0.00323863  0.45464366    -0.11200
C327        C  0.03897724  0.02590238  0.46025913     0.03400
C328        C  0.06258883  0.03348560  0.44837663    -0.10700
H329        H  0.07666299  0.98584481  0.41374197     0.09000
H330        H  0.01092259  0.99728175  0.46250377     0.06600
H331        H  0.07009940  0.05086135  0.45164768     0.06400
C332        C  0.03847451  0.21724440  0.43814673     0.03400
C333        C  0.06165592  0.20966559  0.42668226    -0.12700
C334        C  0.07235566  0.18775274  0.43150354     0.00900
C335        C  0.05993466  0.17328601  0.44904500    -0.11200
C336        C  0.03638304  0.18042747  0.46124272     0.03400
C337        C  0.02593044  0.20280151  0.45578214    -0.10700
H338        H  0.07119390  0.22086192  0.41316456     0.09000
H339        H  0.06809014  0.15609488  0.45240891     0.06600
H340        H  0.00762189  0.20844707  0.46417315     0.06400
O341        O  0.02861312  0.06461989  0.47231365    -0.75000
O342        O  0.00723239  0.03540200  0.49292897    -0.53900
C343        C  0.02386221  0.04285709  0.47636053     0.78700
O344        O  0.02801159  0.14088340  0.57406139    -0.59600
O345        O  0.00604700  0.16991224  0.55361981    -0.52600
C346        C  0.02273382  0.16258742  0.57012954     0.70800
O347        O  0.03119998  0.06310994  0.57094865    -0.74100
O348        O  0.00804642  0.03425366  0.55181706    -0.54700
C349        C  0.02591610  0.04143905  0.56714466     0.76800
O350        O  0.02720331  0.14164361  0.47304583    -0.59300
O351        O  0.00520706  0.17025212  0.49383582    -0.52400
C352        C  0.02191797  0.16320954  0.47726850     0.73400
Zr353      Zr  0.01466322  0.10290985  0.48710951     2.54700
O354        O  0.06243972  0.10337248  0.49123945    -0.79900
O355        O  0.01352098  0.10475303  0.44214132    -0.93300
Zr356      Zr  0.01630905  0.10211941  0.55913860     2.64700
O357        O  0.06420307  0.10348562  0.55634715    -0.98200
O358        O  0.01537608  0.10055723  0.60411566    -0.80300
O359        O  0.01634407  0.07894384  0.52289790    -0.83600
O360        O  0.01592822  0.12612183  0.52323884    -2.18400
O361        O  0.92252371  0.14128006  0.47666966    -0.67000
O362        O  0.94502615  0.17019331  0.49637040    -0.51600
C363        C  0.92735714  0.16295781  0.48082767     0.71700
O364        O  0.92544260  0.06247993  0.57341626    -0.59900
O365        O  0.94768187  0.03400543  0.55248543    -0.51900
C366        C  0.93051477  0.04085245  0.56877030     0.73500
O367        O  0.92800979  0.14139289  0.57528711    -0.71300
O368        O  0.94954416  0.17043630  0.55451104    -0.50000
C369        C  0.93336674  0.16312039  0.57130274     0.74900
O370        O  0.92561477  0.06336800  0.47450968    -0.66700
O371        O  0.94876225  0.03436217  0.49384914    -0.53900
C372        C  0.93155290  0.04167671  0.47788528     0.73300
Zr373      Zr  0.93682974  0.10237480  0.48937757     2.77500
O374        O  0.88972121  0.10031556  0.49806712    -0.97400
O375        O  0.93177258  0.10466490  0.44472592    -0.78200
Zr376      Zr  0.93892676  0.10187118  0.56101133     2.70100
O377        O  0.89098990  0.10266074  0.55842622    -0.79500
O378        O  0.93956751  0.10082425  0.60601470    -0.98600
Zr379      Zr  0.97753763  0.05508062  0.52340996     2.21500
Zr380      Zr  0.97661721  0.14949311  0.52406002     2.11100
O381        O  0.93741402  0.12588392  0.52527034    -2.47300
O382        O  0.93799086  0.07832739  0.52500478    -0.79300
O383        O  0.97551138  0.12565462  0.48783567    -0.71500
O384        O  0.97783341  0.07871826  0.56006871    -2.32400
O385        O  0.97604000  0.07975583  0.48744327    -2.28600
O386        O  0.97750915  0.12510745  0.56022934    -0.73200
H387        H  0.03136327  0.13595055  0.52299622     0.78800
H388        H  0.97821660  0.06887179  0.57459579     0.79900
H389        H  0.92183272  0.13556395  0.52582565     0.82100
H390        H  0.97587034  0.07051538  0.47257733     0.79700
H391        H  0.00316405  0.08767078  0.60823758     0.42700
H392        H  0.95330959  0.11221071  0.61071249     0.41700
H393        H  0.88495937  0.10017329  0.57564057     0.41400
H394        H  0.88355936  0.11670163  0.49802583     0.39300
H395        H  0.91256736  0.10305585  0.44192653     0.42400
H396        H  0.00269970  0.09125066  0.43707879     0.37200
H397        H  0.06896707  0.10740348  0.47451684     0.43300
H398        H  0.06809615  0.11761400  0.54643995     0.39700
H399        H  0.88189084  0.09349568  0.48299381     0.44700
H400        H  0.03167321  0.10074247  0.43689621     0.43400
H401        H  0.07007073  0.10742355  0.57326755     0.43500
H402        H  0.92275388  0.10819794  0.61109038     0.43900
C403        C  0.00429325  0.44352697  0.30182943    -0.10500
C404        C  0.98021701  0.45477299  0.29814706    -0.04400
C405        C  0.95645098  0.44309252  0.30190307    -0.10500
C406        C  0.95635300  0.42246194  0.31646889     0.10400
C407        C  0.98075591  0.41333748  0.32516250    -0.02300
C408        C  0.00493054  0.42296380  0.31644427     0.10200
C409        C  0.02878996  0.41203334  0.32288714    -0.12300
C410        C  0.02911016  0.39316805  0.33945590    -0.12300
C411        C  0.00552709  0.38447919  0.34960130     0.10200
C412        C  0.98100835  0.39385529  0.34144253    -0.02300
C413        C  0.93282628  0.41094179  0.32283489    -0.12500
C414        C  0.93305249  0.39155799  0.33880715    -0.12500
C415        C  0.95680931  0.38320337  0.34888713     0.10400
C416        C  0.95749673  0.36477843  0.36652975    -0.10500
C417        C  0.98144672  0.35890746  0.37730769    -0.04400
C418        C  0.00541654  0.36675217  0.36784670    -0.10500
H419        H  0.04736452  0.41874875  0.31602887     0.07700
H420        H  0.04794699  0.38583711  0.34487862     0.07700
H421        H  0.91405819  0.41740648  0.31612754     0.07900
H422        H  0.91447578  0.38360448  0.34392023     0.07900
H423        H  0.98001300  0.47031690  0.28656952     0.04300
H424        H  0.98166174  0.34479110  0.39080680     0.04300
C425        C  0.29797736  0.12716902  0.25840768    -0.10500
C426        C  0.30935640  0.10607610  0.25145166    -0.04400
C427        C  0.30049903  0.08469770  0.26037139    -0.10500
C428        C  0.28000645  0.08417867  0.27812254     0.10400
C429        C  0.26837008  0.10554749  0.28600074    -0.02300
C430        C  0.27708766  0.12716457  0.27581889     0.10200
C431        C  0.26484144  0.14794226  0.28342196    -0.12300
C432        C  0.24447707  0.14765905  0.30091908    -0.12300
C433        C  0.23562889  0.12658185  0.31129479     0.10200
C434        C  0.24765760  0.10524460  0.30372821    -0.02300
C435        C  0.27102003  0.06306944  0.28829900    -0.12500
C436        C  0.25100502  0.06279140  0.30606949    -0.12500
C437        C  0.23905168  0.08358773  0.31393636     0.10400
C438        C  0.21864771  0.08355375  0.33175964    -0.10500
C439        C  0.20696826  0.10453149  0.33853847    -0.04400
C440        C  0.21513956  0.12595046  0.32913203    -0.10500
H441        H  0.27111690  0.16458195  0.27597198     0.07700
H442        H  0.23564463  0.16406748  0.30630890     0.07700
H443        H  0.27968892  0.04663746  0.28275477     0.07900
H444        H  0.24484304  0.04614838  0.31359608     0.07900
H445        H  0.32450071  0.10620530  0.23722923     0.04300
H446        H  0.19097263  0.10419221  0.35192208     0.04300
C447        C  0.22613519  0.43012124  0.00045660    -0.10500
C448        C  0.21663633  0.43795804  0.02304740    -0.04400
C449        C  0.22626210  0.42986065  0.04555391    -0.10500
C450        C  0.24679817  0.41300085  0.04565461     0.10400
C451        C  0.25783807  0.40565762  0.02265682    -0.02300
C452        C  0.24709405  0.41384927  0.99989515     0.10200
C453        C  0.25755971  0.40557333  0.97750318    -0.12300
C454        C  0.27880379  0.38992623  0.97732351    -0.12300
C455        C  0.29049052  0.38247408  0.99950871     0.10200
C456        C  0.27961695  0.39006639  0.02240691    -0.02300
C457        C  0.25662249  0.40330590  0.06771790    -0.12500
C458        C  0.27752165  0.38727052  0.06736604    -0.12500
C459        C  0.28977867  0.38112818  0.04502663     0.10400
C460        C  0.31240511  0.36669281  0.04449406    -0.10500
C461        C  0.32550295  0.36329876  0.02217025    -0.04400
C462        C  0.31322368  0.36805689  0.99968849    -0.10500
H463        H  0.24954802  0.41142386  0.95999148     0.07700
H464        H  0.28667618  0.38429216  0.95972280     0.07700
H465        H  0.24829457  0.40823326  0.08536773     0.07900
H466        H  0.28483462  0.38043128  0.08475477     0.07900
H467        H  0.20035180  0.45032639  0.02309231     0.04300
H468        H  0.34257806  0.35180490  0.02214704     0.04300
C469        C  0.65221705  0.12164579  0.26642915    -0.10500
C470        C  0.64395586  0.10022668  0.25728456    -0.04400
C471        C  0.65380725  0.07911906  0.26610156    -0.10500
C472        C  0.67230755  0.07906035  0.28560903     0.10400
C473        C  0.68063526  0.10070886  0.29577035    -0.02300
C474        C  0.67081096  0.12215292  0.28596370     0.10200
C475        C  0.67973680  0.14326280  0.29599723    -0.12300
C476        C  0.69769765  0.14345184  0.31562999    -0.12300
C477        C  0.70757404  0.12254163  0.32564772     0.10200
C478        C  0.69923019  0.10091024  0.31540263    -0.02300
C479        C  0.68268925  0.05815739  0.29514000    -0.12500
C480        C  0.70127971  0.05837061  0.31418506    -0.12500
C481        C  0.70983530  0.07948130  0.32446101     0.10400
C482        C  0.72870782  0.07995461  0.34364829    -0.10500
C483        C  0.73580720  0.10120650  0.35395817    -0.04400
C484        C  0.72563041  0.12240018  0.34563722    -0.10500
H485        H  0.67260529  0.15977796  0.28886997     0.07700
H486        H  0.70381621  0.16010879  0.32297473     0.07700
H487        H  0.67651167  0.04149806  0.28783315     0.07900
H488        H  0.70884721  0.04187006  0.32095170     0.07900
H489        H  0.63036087  0.09997860  0.24176071     0.04300
H490        H  0.75078519  0.10131950  0.36832227     0.04300
C491        C  0.95283684  0.76024143  0.30091828    -0.10500
C492        C  0.97728585  0.74975999  0.29709001    -0.04400
C493        C  0.00062225  0.76225666  0.29972110    -0.10500
C494        C  0.00035560  0.78319077  0.31344043     0.10400
C495        C  0.97588362  0.79191946  0.32240857    -0.02300
C496        C  0.95179855  0.78131221  0.31478317     0.10200
C497        C  0.92781420  0.79173625  0.32177624    -0.12300
C498        C  0.92738633  0.81131548  0.33737746    -0.12300
C499        C  0.95094375  0.82126662  0.34612929     0.10200
C500        C  0.97550227  0.81193488  0.33784934    -0.02300
C501        C  0.02371311  0.79530229  0.31876879    -0.12500
C502        C  0.02340915  0.81488567  0.33414251    -0.12500
C503        C  0.99969376  0.82305007  0.34439506     0.10400
C504        C  0.99915229  0.84191558  0.36119955    -0.10500
C505        C  0.97521833  0.84871152  0.37136516    -0.04400
C506        C  0.95114755  0.84020402  0.36302223    -0.10500
H507        H  0.90927278  0.78419616  0.31597669     0.07700
H508        H  0.90850813  0.81833147  0.34306487     0.07700
H509        H  0.04246953  0.78910574  0.31179662     0.07900
H510        H  0.04192706  0.82328827  0.33849401     0.07900
H511        H  0.97791274  0.73384129  0.28628511     0.04300
H512        H  0.97513941  0.86340251  0.38402189     0.04300
C513        C  0.29807813  0.07986037  0.78574570    -0.10500
C514        C  0.30674172  0.10062215  0.79624638    -0.04400
C515        C  0.29582474  0.12221703  0.79016954    -0.10500
C516        C  0.27503734  0.12331857  0.77278043     0.10400
C517        C  0.26674117  0.10251340  0.76077070    -0.02300
C518        C  0.27824362  0.08062831  0.76729234     0.10200
C519        C  0.26995856  0.06044426  0.75490635    -0.12300
C520        C  0.25133478  0.06171884  0.73580225    -0.12300
C521        C  0.23967614  0.08310108  0.72907139     0.10200
C522        C  0.24697596  0.10365534  0.74215261    -0.02300
C523        C  0.26264066  0.14453784  0.76681449    -0.12500
C524        C  0.24256250  0.14552144  0.74919014    -0.12500
C525        C  0.23475136  0.12544617  0.73643879     0.10400
C526        C  0.21522572  0.12642134  0.71784472    -0.10500
C527        C  0.20898799  0.10631982  0.70488167    -0.04400
C528        C  0.22108292  0.08488764  0.70949810    -0.10500
H529        H  0.27842877  0.04362631  0.75948688     0.07700
H530        H  0.24611205  0.04582679  0.72629280     0.07700
H531        H  0.26846887  0.16058450  0.77570218     0.07900
H532        H  0.23352609  0.16223751  0.74519846     0.07900
H533        H  0.32177660  0.09983472  0.81053455     0.04300
H534        H  0.19380196  0.10741491  0.69075176     0.04300
C535        C  0.00588290  0.43725969  0.75539061    -0.10500
C536        C  0.98188128  0.44788713  0.76076900    -0.04400
C537        C  0.95800221  0.43695093  0.75609417    -0.10500
C538        C  0.95756484  0.41744870  0.74015736     0.10400
C539        C  0.98187164  0.40875666  0.73057850    -0.02300
C540        C  0.00626939  0.41772345  0.73943493     0.10200
C541        C  0.02996184  0.40725257  0.73171856    -0.12300
C542        C  0.02987013  0.38923095  0.71423868    -0.12300
C543        C  0.00607026  0.38112430  0.70411862     0.10200
C544        C  0.98177199  0.39048127  0.71298446    -0.02300
C545        C  0.93384796  0.40676421  0.73315296    -0.12500
C546        C  0.93373754  0.38875639  0.71575813    -0.12500
C547        C  0.95734711  0.38090546  0.70499258     0.10400
C548        C  0.95745939  0.36378747  0.68630569    -0.10500
C549        C  0.98123799  0.35751560  0.67533812    -0.04400
C550        C  0.00546582  0.36406772  0.68521206    -0.10500
H551        H  0.04870339  0.41356311  0.73852356     0.07700
H552        H  0.04854696  0.38212123  0.70810954     0.07700
H553        H  0.91520849  0.41286856  0.74047383     0.07900
H554        H  0.91499460  0.38145627  0.71017986     0.07900
H555        H  0.98184480  0.46270090  0.77325833     0.04300
H556        H  0.98094401  0.34393556  0.66136977     0.04300
C557        C  0.22166711  0.77827186  0.00502638    -0.10500
C558        C  0.21095779  0.77055325  0.02725333    -0.04400
C559        C  0.21972558  0.77826915  0.05013952    -0.10500
C560        C  0.24028800  0.79502785  0.05114907     0.10400
C561        C  0.25161466  0.80336015  0.02861143    -0.02300
C562        C  0.24193008  0.79530510  0.00537897     0.10200
C563        C  0.25261067  0.80460765  0.98347798    -0.12300
C564        C  0.27269308  0.82135603  0.98418667    -0.12300
C565        C  0.28328337  0.82878493  0.00678689     0.10200
C566        C  0.27259868  0.81982719  0.02928879    -0.02300
C567        C  0.24979674  0.80371565  0.07371838    -0.12500
C568        C  0.27020249  0.82021281  0.07433587    -0.12500
C569        C  0.28211711  0.82818313  0.05242924     0.10400
C570        C  0.30373335  0.84391124  0.05267908    -0.10500
C571        C  0.31604869  0.84961071  0.03046722    -0.04400
C572        C  0.30469957  0.84458977  0.00776601    -0.10500
H573        H  0.24543328  0.79894888  0.96564951     0.07700
H574        H  0.28052144  0.82797200  0.96690705     0.07700
H575        H  0.24148454  0.79772363  0.09104717     0.07900
H576        H  0.27712672  0.82629234  0.09209918     0.07900
H577        H  0.19483452  0.75808915  0.02670233     0.04300
H578        H  0.33218719  0.86208316  0.03079945     0.04300
C579        C  0.73011826  0.42981277  0.03881697    -0.10500
C580        C  0.73919154  0.43758229  0.01596593    -0.04400
C581        C  0.72826806  0.43024537  0.99373768    -0.10500
C582        C  0.70743637  0.41376483  0.99416731     0.10400
C583        C  0.69768173  0.40573961  0.01744001    -0.02300
C584        C  0.70942000  0.41345343  0.03986886     0.10200
C585        C  0.70015143  0.40468228  0.06254428    -0.12300
C586        C  0.67938867  0.38876579  0.06335371    -0.12300
C587        C  0.66686680  0.38161378  0.04156506     0.10200
C588        C  0.67616333  0.38997284  0.01834279    -0.02300
C589        C  0.69621669  0.40498278  0.97236417    -0.12500
C590        C  0.67546444  0.38887303  0.97329836    -0.12500
C591        C  0.66482861  0.38158544  0.99603929     0.10400
C592        C  0.64294603  0.36629534  0.99734681    -0.10500
C593        C  0.63208652  0.36099704  0.02035142    -0.04400
C594        C  0.64511065  0.36633420  0.04225913    -0.10500
H595        H  0.70889524  0.41013383  0.07982090     0.07700
H596        H  0.67265762  0.38253661  0.08119384     0.07700
H597        H  0.70346386  0.41055845  0.95447068     0.07900
H598        H  0.66723239  0.38261824  0.95610427     0.07900
H599        H  0.75550779  0.44984221  0.01546418     0.04300
H600        H  0.61600471  0.34850594  0.02113226     0.04300
C601        C  0.95726283  0.76550631  0.75335334    -0.10500
C602        C  0.98119042  0.75457627  0.75844173    -0.04400
C603        C  0.00513974  0.76548876  0.75334320    -0.10500
C604        C  0.00553468  0.78481668  0.73688566     0.10400
C605        C  0.98127804  0.79303848  0.72682446    -0.02300
C606        C  0.95688666  0.78435087  0.73621350     0.10200
C607        C  0.93321020  0.79443814  0.72785819    -0.12300
C608        C  0.93332130  0.81167654  0.70930682    -0.12300
C609        C  0.95713260  0.81951078  0.69883458     0.10200
C610        C  0.98139566  0.81080620  0.70841095    -0.02300
C611        C  0.02913203  0.79598894  0.73005458    -0.12500
C612        C  0.02918225  0.81391432  0.71226473    -0.12500
C613        C  0.00569662  0.82088822  0.70055585     0.10400
C614        C  0.00548348  0.83737571  0.68088624    -0.10500
C615        C  0.98195572  0.84140982  0.66828478    -0.04400
C616        C  0.95773362  0.83563921  0.67884540    -0.10500
H617        H  0.91446827  0.78832767  0.73494057     0.07700
H618        H  0.91464365  0.81835993  0.70261580     0.07700
H619        H  0.04774718  0.79038782  0.73790784     0.07900
H620        H  0.04781907  0.82161599  0.70690107     0.07900
H621        H  0.98115624  0.74008189  0.77148764     0.04300
H622        H  0.98214613  0.85406059  0.65324434     0.04300
C623        C  0.65409126  0.12683655  0.77730946    -0.10500
C624        C  0.64191820  0.10640420  0.78513215    -0.04400
C625        C  0.64939966  0.08453534  0.77643220    -0.10500
C626        C  0.66952651  0.08297949  0.75828330     0.10400
C627        C  0.68096573  0.10387777  0.74883096    -0.02300
C628        C  0.67328524  0.12591828  0.75849205     0.10200
C629        C  0.68486541  0.14631483  0.74910214    -0.12300
C630        C  0.70342366  0.14527054  0.73010870    -0.12300
C631        C  0.71158949  0.12374373  0.72047372     0.10200
C632        C  0.70060550  0.10275162  0.73017200    -0.02300
C633        C  0.67849246  0.06139358  0.74931950    -0.12500
C634        C  0.69830617  0.06025799  0.73131778    -0.12500
C635        C  0.70945004  0.08067832  0.72142264     0.10400
C636        C  0.72913026  0.07994541  0.70287705    -0.10500
C637        C  0.73887641  0.10073305  0.69316899    -0.04400
C638        C  0.73046497  0.12245779  0.70134168    -0.10500
H639        H  0.67919987  0.16325973  0.75609166     0.07700
H640        H  0.71143556  0.16146750  0.72306079     0.07700
H641        H  0.67015337  0.04524707  0.75616392     0.07900
H642        H  0.70465335  0.04328750  0.72492974     0.07900
H643        H  0.62761753  0.10745548  0.80005524     0.04300
H644        H  0.75434025  0.09995930  0.67927756     0.04300
C645        C  0.72611532  0.77338239  0.00435285    -0.10500
C646        C  0.73576710  0.76478490  0.02668965    -0.04400
C647        C  0.72589230  0.77175993  0.04948313    -0.10500
C648        C  0.70493888  0.78820640  0.05027628     0.10400
C649        C  0.69385476  0.79655680  0.02765139    -0.02300
C650        C  0.70478755  0.78947145  0.00453160     0.10200
C651        C  0.69412288  0.79866574  0.98256654    -0.12300
C652        C  0.67277056  0.81423179  0.98311043    -0.12300
C653        C  0.66115602  0.82085647  0.00560785     0.10200
C654        C  0.67194915  0.81216476  0.02816083    -0.02300
C655        C  0.69481985  0.79657286  0.07276105    -0.12500
C656        C  0.67372271  0.81242524  0.07321387    -0.12500
C657        C  0.66160803  0.81995794  0.05122687     0.10400
C658        C  0.63915480  0.83483557  0.05142059    -0.10500
C659        C  0.62704417  0.84047520  0.02907768    -0.04400
C660        C  0.63880812  0.83577514  0.00637640    -0.10500
H661        H  0.70215597  0.79369465  0.96480899     0.07700
H662        H  0.66492458  0.82066604  0.96575592     0.07700
H663        H  0.70313887  0.79077889  0.09016574     0.07900
H664        H  0.66635744  0.81824344  0.09093428     0.07900
H665        H  0.75226063  0.75264386  0.02634308     0.04300
H666        H  0.61053370  0.85258139  0.02942712     0.04300
C667        C  0.02007537  0.26696717  0.36722761    -0.17500
C668        C  0.02257941  0.28880286  0.35589737    -0.19700
C669        C  0.02774914  0.30868473  0.37007692     0.21000
C670        C  0.03021388  0.30657007  0.39597224    -0.02600
C671        C  0.02775457  0.28448905  0.40742709    -0.05700
C672        C  0.02289176  0.26461045  0.39291678     0.21200
C673        C  0.03070361  0.28223555  0.43329355     0.19400
C674        C  0.03515818  0.30226528  0.44749482    -0.17200
C675        C  0.03688960  0.32425071  0.43619605    -0.19400
C676        C  0.03452570  0.32659619  0.41044036     0.20900
C677        C  0.03402076  0.34872786  0.39910995    -0.32400
C678        C  0.02756655  0.35091908  0.37385269     0.01600
C679        C  0.02818051  0.33085797  0.35904209    -0.23700
C680        C  0.02253292  0.24255566  0.40413085    -0.28300
C681        C  0.02784947  0.23994134  0.42952895     0.07300
C682        C  0.03070632  0.25989586  0.44423241    -0.27000
H683        H  0.01627548  0.25185659  0.35584422     0.12000
H684        H  0.02012444  0.29018442  0.33605600     0.13100
H685        H  0.03741668  0.30091885  0.46735592     0.12200
H686        H  0.03989631  0.33945755  0.44764124     0.11400
H687        H  0.03369807  0.36415542  0.41060585     0.16800
H688        H  0.02337345  0.33248081  0.33957239     0.12700
H689        H  0.02068296  0.22714516  0.39272483     0.15600
H690        H  0.03521123  0.25791726  0.46370889     0.15400
C691        C  0.18744144  0.15753193  0.40676849    -0.17500
C692        C  0.16588246  0.16287147  0.42194044    -0.19700
C693        C  0.14136989  0.16876054  0.41157606     0.21000
C694        C  0.13885664  0.16980145  0.38555955    -0.02600
C695        C  0.16054427  0.16406454  0.37022415    -0.05700
C696        C  0.18485291  0.15770376  0.38093005     0.21200
C697        C  0.15748320  0.16346713  0.34426775     0.19400
C698        C  0.13324994  0.17015665  0.33385433    -0.17200
C699        C  0.11204419  0.17657138  0.34899346    -0.19400
C700        C  0.11447968  0.17593153  0.37484356     0.20900
C701        C  0.09290035  0.18112395  0.39013022    -0.32400
C702        C  0.09505359  0.17994222  0.41607554     0.01600
C703        C  0.11935616  0.17359210  0.42669686    -0.23700
C704        C  0.20544047  0.14973047  0.36578604    -0.28300
C705        C  0.20146610  0.14629562  0.34029940     0.07300
C706        C  0.17793101  0.15440829  0.32944726    -0.27000
H707        H  0.20595531  0.15254038  0.41528604     0.12000
H708        H  0.16831316  0.16211244  0.44181448     0.13100
H709        H  0.13050767  0.16994881  0.31400439     0.12200
H710        H  0.09348650  0.18143512  0.34047640     0.11400
H711        H  0.07424880  0.18613862  0.38185177     0.16800
H712        H  0.12127292  0.17305580  0.44663964     0.12700
H713        H  0.22325950  0.14295343  0.37428737     0.15600
H714        H  0.17445325  0.15131055  0.30997146     0.15400
C715        C  0.11964601  0.02876135  0.35031773    -0.17500
C716        C  0.14132939  0.03526822  0.33586267    -0.19700
C717        C  0.16457593  0.04321621  0.34701910     0.21000
C718        C  0.16625569  0.04388852  0.37307491    -0.02600
C719        C  0.14413577  0.03776748  0.38768409    -0.05700
C720        C  0.12068529  0.03037558  0.37618867     0.21200
C721        C  0.14519694  0.03979534  0.41369651     0.19400
C722        C  0.16875627  0.04711117  0.42484017    -0.17200
C723        C  0.19067724  0.05313130  0.41038193    -0.19400
C724        C  0.18945616  0.05201508  0.38448171     0.20900
C725        C  0.21003403  0.06085680  0.36979164    -0.32400
C726        C  0.20711133  0.06275467  0.34396249     0.01600
C727        C  0.18518253  0.05242731  0.33261999    -0.23700
C728        C  0.09856441  0.02499022  0.39071247    -0.28300
C729        C  0.09924204  0.02714361  0.41665776     0.07300
C730        C  0.12266415  0.03463418  0.42802841    -0.27000
H731        H  0.10180131  0.02300804  0.34121217     0.12000
H732        H  0.13966251  0.03466415  0.31591548     0.13100
H733        H  0.17007627  0.04861412  0.44474734     0.12200
H734        H  0.20832490  0.05938828  0.41945071     0.11400
H735        H  0.22665746  0.06929533  0.37860120     0.16800
H736        H  0.18260513  0.05433123  0.31281890     0.12700
H737        H  0.08063251  0.01908621  0.38182414     0.15600
H738        H  0.12349186  0.03590317  0.44798769     0.15400
C739        C  0.02011351  0.92184778  0.35205074    -0.17500
C740        C  0.02066812  0.94318102  0.36450378    -0.19700
C741        C  0.02561928  0.94395564  0.39001305     0.21000
C742        C  0.03055040  0.92306177  0.40303769    -0.02600
C743        C  0.02999985  0.90146364  0.39042101    -0.05700
C744        C  0.02442491  0.90085132  0.36487418     0.21200
C745        C  0.03380307  0.88044317  0.40357648     0.19400
C746        C  0.03921201  0.88129307  0.42901938    -0.17200
C747        C  0.04040499  0.90270708  0.44139254    -0.19400
C748        C  0.03583921  0.92373013  0.42866856     0.20900
C749        C  0.03721639  0.94540937  0.44089490    -0.32400
C750        C  0.03299331  0.96636025  0.42782444     0.01600
C751        C  0.02652507  0.96532849  0.40252778    -0.23700
C752        C  0.02086596  0.87926087  0.35309827    -0.28300
C753        C  0.02094250  0.85835300  0.36687460     0.07300
C754        C  0.02977118  0.85898837  0.39157378    -0.27000
H755        H  0.01564288  0.92173896  0.33247627     0.12000
H756        H  0.01703860  0.95909719  0.35418582     0.13100
H757        H  0.04205424  0.86533608  0.43947670     0.12200
H758        H  0.04457792  0.90279366  0.46102127     0.11400
H759        H  0.04305604  0.94608151  0.46014188     0.16800
H760        H  0.02405260  0.98143924  0.39220705     0.12700
H761        H  0.01363579  0.87900682  0.33423909     0.15600
H762        H  0.02945665  0.84305788  0.40242868     0.15400
C763        C  0.81292082  0.04028195  0.34115928    -0.17500
C764        C  0.83542633  0.03399466  0.35461463    -0.19700
C765        C  0.83445571  0.03228292  0.38048289     0.21000
C766        C  0.81040410  0.03616849  0.39289597    -0.02600
C767        C  0.78752750  0.04191775  0.37924941    -0.05700
C768        C  0.78895099  0.04458975  0.35331244     0.21200
C769        C  0.76358990  0.04623318  0.39169705     0.19400
C770        C  0.76255718  0.04421896  0.41753948    -0.17200
C771        C  0.78525451  0.03869698  0.43106779    -0.19400
C772        C  0.80935375  0.03492641  0.41898047     0.20900
C773        C  0.83240107  0.02994938  0.43247048    -0.32400
C774        C  0.85626589  0.02574825  0.42012084     0.01600
C775        C  0.85713406  0.02688289  0.39416680    -0.23700
C776        C  0.76704087  0.05338325  0.34032534    -0.28300
C777        C  0.74394670  0.05971104  0.35303991     0.07300
C778        C  0.74173252  0.05443896  0.37836371    -0.27000
H779        H  0.81440921  0.04226465  0.32128874     0.12000
H780        H  0.85375301  0.03098202  0.34482509     0.13100
H781        H  0.74434229  0.04760574  0.42736908     0.12200
H782        H  0.78402745  0.03768371  0.45103015     0.11400
H783        H  0.83168008  0.02868022  0.45245394     0.16800
H784        H  0.87556651  0.02344609  0.38467274     0.12700
H785        H  0.76901519  0.05791806  0.32093685     0.15600
H786        H  0.72415239  0.05982682  0.38824407     0.15400
C787        C  0.93131759  0.94052174  0.36557493    -0.17500
C788        C  0.93008777  0.91898773  0.35356954    -0.19700
C789        C  0.92594487  0.89836452  0.36707353     0.21000
C790        C  0.92247198  0.89955637  0.39291117    -0.02600
C791        C  0.92345349  0.92139252  0.40505246    -0.05700
C792        C  0.92816269  0.94190229  0.39130345     0.21200
C793        C  0.91971483  0.92269443  0.43088629     0.19400
C794        C  0.91519672  0.90204954  0.44428820    -0.17200
C795        C  0.91516105  0.88035352  0.43237695    -0.19400
C796        C  0.91906322  0.87886200  0.40670853     0.20900
C797        C  0.92195723  0.85708834  0.39492432    -0.32400
C798        C  0.92882663  0.85586413  0.36964325     0.01600
C799        C  0.92759099  0.87650857  0.35546997    -0.23700
C800        C  0.92858065  0.96353998  0.40333632    -0.28300
C801        C  0.92348004  0.96523595  0.42887628     0.07300
C802        C  0.91960605  0.94464186  0.44264027    -0.27000
H803        H  0.93474698  0.95613074  0.35470234     0.12000
H804        H  0.93304258  0.91840987  0.33375328     0.13100
H805        H  0.91205351  0.90264153  0.46407682     0.12200
H806        H  0.91246925  0.86468428  0.44333004     0.11400
H807        H  0.92304769  0.84138835  0.40610882     0.16800
H808        H  0.93309048  0.87581939  0.33611267     0.12700
H809        H  0.93073873  0.97937978  0.39250309     0.15600
H810        H  0.91478999  0.94583841  0.46210878     0.15400
C811        C  0.91207369  0.32442187  0.43254649    -0.17500
C812        C  0.90899316  0.30302616  0.44489128    -0.19700
C813        C  0.91444499  0.28192690  0.43283791     0.21000
C814        C  0.92253544  0.28248761  0.40785026    -0.02600
C815        C  0.92510868  0.30410397  0.39522214    -0.05700
C816        C  0.92033739  0.32520470  0.40776409     0.21200
C817        C  0.93349842  0.30462041  0.37036206     0.19400
C818        C  0.93884039  0.28353081  0.35823277    -0.17200
C819        C  0.93619475  0.26218200  0.37065986    -0.19400
C820        C  0.92821448  0.26146852  0.39549550     0.20900
C821        C  0.92524361  0.24008856  0.40798572    -0.32400
C822        C  0.91651869  0.23927093  0.43267788     0.01600
C823        C  0.91140079  0.26030100  0.44509360    -0.23700
C824        C  0.92588097  0.34664416  0.39595562    -0.28300
C825        C  0.93650389  0.34728958  0.37185722     0.07300
C826        C  0.93837031  0.32618239  0.35866597    -0.27000
H827        H  0.90836741  0.34041516  0.44253853     0.12000
H828        H  0.90263521  0.30300887  0.46400415     0.13100
H829        H  0.94555228  0.28355819  0.33922528     0.12200
H830        H  0.94057323  0.24620500  0.36086544     0.11400
H831        H  0.92843212  0.22390459  0.39813447     0.16800
H832        H  0.90386417  0.25975227  0.46383338     0.12700
H833        H  0.92517110  0.36260817  0.40657512     0.15600
H834        H  0.94738041  0.32633779  0.34048367     0.15400
C835        C  0.75791217  0.15231946  0.42289833    -0.17500
C836        C  0.78070903  0.15807792  0.43618059    -0.19700
C837        C  0.80366258  0.16525561  0.42379033     0.21000
C838        C  0.80319008  0.16750953  0.39776584    -0.02600
C839        C  0.78014943  0.16177818  0.38436306    -0.05700
C840        C  0.75763371  0.15361135  0.39696132     0.21200
C841        C  0.78019305  0.16292644  0.35826700     0.19400
C842        C  0.80271333  0.17104785  0.34592033    -0.17200
C843        C  0.82538163  0.17699042  0.35918147    -0.19400
C844        C  0.82597746  0.17484883  0.38503099     0.20900
C845        C  0.84897993  0.17995143  0.39832094    -0.32400
C846        C  0.84970624  0.17793235  0.42427333     0.01600
C847        C  0.82701499  0.17029132  0.43688899    -0.23700
C848        C  0.73624887  0.14488819  0.38333460    -0.28300
C849        C  0.73771491  0.14316749  0.35735969     0.07300
C850        C  0.75876363  0.15390848  0.34492766    -0.27000
H851        H  0.74075953  0.14613156  0.43288690     0.12000
H852        H  0.78053210  0.15649419  0.45613606     0.13100
H853        H  0.80308373  0.17212187  0.32592962     0.12200
H854        H  0.84266473  0.18281821  0.34915193     0.11400
H855        H  0.86640338  0.18579451  0.38847758     0.16800
H856        H  0.82732737  0.16898379  0.45687337     0.12700
H857        H  0.72019612  0.13631976  0.39299315     0.15600
H858        H  0.76015275  0.15235119  0.32500674     0.15400
C859        C  0.02401148  0.28444238  0.69283951    -0.17500
C860        C  0.02241524  0.26327152  0.68021952    -0.19700
C861        C  0.02604936  0.26248712  0.65452851     0.21000
C862        C  0.03155109  0.28318840  0.64140067    -0.02600
C863        C  0.03282272  0.30466382  0.65413935    -0.05700
C864        C  0.02890455  0.30527989  0.67995802     0.21200
C865        C  0.03690714  0.32559993  0.64093767     0.19400
C866        C  0.04092095  0.32470659  0.61525673    -0.17200
C867        C  0.04065523  0.30332149  0.60276199    -0.19400
C868        C  0.03577957  0.28242741  0.61559649     0.20900
C869        C  0.03608755  0.26072621  0.60336712    -0.32400
C870        C  0.03157858  0.23995091  0.61662693     0.01600
C871        C  0.02542255  0.24119463  0.64196218    -0.23700
C872        C  0.02744632  0.32685246  0.69209736    -0.28300
C873        C  0.02709805  0.34779238  0.67842669     0.07300
C874        C  0.03447822  0.34708941  0.65328228    -0.27000
H875        H  0.02069739  0.28459424  0.71261650     0.12000
H876        H  0.01836906  0.24747340  0.69058514     0.13100
H877        H  0.04393721  0.34060450  0.60475836     0.12200
H878        H  0.04397596  0.30316261  0.58298794     0.11400
H879        H  0.04154137  0.25984484  0.58402614     0.16800
H880        H  0.02261321  0.22517019  0.65235238     0.12700
H881        H  0.02155720  0.32720654  0.71136642     0.15600
H882        H  0.03405415  0.36309269  0.64255397     0.15400
C883        C  0.16956227  0.17878921  0.63156978    -0.17500
C884        C  0.19034413  0.17314152  0.64758307    -0.19700
C885        C  0.18525258  0.16595211  0.67195854     0.21000
C886        C  0.15902555  0.16556780  0.68064716    -0.02600
C887        C  0.13800239  0.17082863  0.66433617    -0.05700
C888        C  0.14328486  0.17704049  0.63952837     0.21200
C889        C  0.11169650  0.16908936  0.67263293     0.19400
C890        C  0.10668483  0.16329705  0.69743125    -0.17200
C891        C  0.12748775  0.15801990  0.71354487    -0.19400
C892        C  0.15367964  0.15842569  0.70514593     0.20900
C893        C  0.17426798  0.14970500  0.71997515    -0.32400
C894        C  0.19986412  0.14730896  0.71027887     0.01600
C895        C  0.20557810  0.15710940  0.68699575    -0.23700
C896        C  0.12221720  0.18118173  0.62311875    -0.28300
C897        C  0.09599140  0.17884510  0.63113486     0.07300
C898        C  0.09089741  0.17305864  0.65596847    -0.27000
H899        H  0.17402901  0.18383543  0.61271482     0.12000
H900        H  0.21037730  0.17367030  0.64064353     0.13100
H901        H  0.08661596  0.16224776  0.70421161     0.12200
H902        H  0.12301122  0.15275372  0.73233331     0.11400
H903        H  0.16969688  0.14179272  0.73770054     0.16800
H904        H  0.22516128  0.15488001  0.67929173     0.12700
H905        H  0.12613778  0.18655627  0.60424335     0.15600
H906        H  0.07065855  0.17214069  0.66237178     0.15400
C907        C  0.91393586  0.32381065  0.62053348    -0.17500
C908        C  0.91321416  0.30247162  0.60803526    -0.19700
C909        C  0.92061825  0.28172397  0.62006812     0.21000
C910        C  0.92785873  0.28242881  0.64524892    -0.02600
C911        C  0.92772671  0.30385567  0.65807704    -0.05700
C912        C  0.92156790  0.32475215  0.64545091     0.21200
C913        C  0.93506143  0.30450979  0.68320947     0.19400
C914        C  0.94198727  0.28374899  0.69542005    -0.17200
C915        C  0.94225492  0.26257659  0.68270279    -0.19400
C916        C  0.93544258  0.26175953  0.65758351     0.20900
C917        C  0.93523734  0.24051734  0.64482109    -0.32400
C918        C  0.92701410  0.23946698  0.62000932     0.01600
C919        C  0.92014191  0.26021136  0.60762848    -0.23700
C920        C  0.92560281  0.34626119  0.65727574    -0.28300
C921        C  0.93600720  0.34696027  0.68139124     0.07300
C922        C  0.93779475  0.32608034  0.69503709    -0.27000
H923        H  0.90905784  0.33965151  0.61054577     0.12000
H924        H  0.90733363  0.30226044  0.58879530     0.13100
H925        H  0.94793575  0.28397665  0.71464561     0.12200
H926        H  0.94796631  0.24684169  0.69249086     0.11400
H927        H  0.93951546  0.22445214  0.65469310     0.16800
H928        H  0.91278232  0.25936001  0.58885060     0.12700
H929        H  0.92446426  0.36226255  0.64658482     0.15600
H930        H  0.94613887  0.32653852  0.71348839     0.15400
C931        C  0.80779735  0.17195794  0.70445179    -0.17500
C932        C  0.83059187  0.17920327  0.69208290    -0.19700
C933        C  0.83236549  0.17744619  0.66627540     0.21000
C934        C  0.81057040  0.16934546  0.65264889    -0.02600
C935        C  0.78733949  0.16256706  0.66509027    -0.05700
C936        C  0.78627598  0.16316798  0.69117789     0.21200
C937        C  0.76580225  0.15385820  0.65152609     0.19400
C938        C  0.76732704  0.15270248  0.62565703    -0.17200
C939        C  0.79043796  0.15922766  0.61334869    -0.19400
C940        C  0.81231670  0.16719012  0.62669124     0.20900
C941        C  0.83598355  0.17277814  0.61459343    -0.32400
C942        C  0.85772503  0.18083715  0.62809679     0.01600
C943        C  0.85570964  0.18324981  0.65390322    -0.23700
C944        C  0.76472776  0.15314054  0.70354428    -0.28300
C945        C  0.74440576  0.14253590  0.69009286     0.07300
C946        C  0.74409785  0.14455893  0.66415871    -0.27000
H947        H  0.80728017  0.17263278  0.72445040     0.12000
H948        H  0.84712312  0.18556592  0.70276840     0.13100
H949        H  0.75096166  0.14598262  0.61499781     0.12200
H950        H  0.79136761  0.15763136  0.59342573     0.11400
H951        H  0.83739723  0.17124503  0.59467681     0.16800
H952        H  0.87251914  0.18940355  0.66437953     0.12700
H953        H  0.76521545  0.15122136  0.72348233     0.15600
H954        H  0.72858307  0.13602512  0.65381184     0.15400
C955        C  0.91666567  0.87807478  0.61174094    -0.17500
C956        C  0.91438704  0.89997300  0.60026293    -0.19700
C957        C  0.91874376  0.92052431  0.61365983     0.21000
C958        C  0.92459312  0.91889852  0.63913860    -0.02600
C959        C  0.92626490  0.89678526  0.65086363    -0.05700
C960        C  0.92293242  0.87625204  0.63696580     0.21200
C961        C  0.93238346  0.89522255  0.67625653     0.19400
C962        C  0.93611693  0.91574191  0.68983757    -0.17200
C963        C  0.93439916  0.93758474  0.67827822    -0.19400
C964        C  0.92895138  0.93935022  0.65289334     0.20900
C965        C  0.92716143  0.96122620  0.64118140    -0.32400
C966        C  0.92076458  0.96313463  0.61589837     0.01600
C967        C  0.91677170  0.94264198  0.60221062    -0.23700
C968        C  0.92800811  0.85439595  0.64804329    -0.28300
C969        C  0.93676120  0.85288261  0.67274515     0.07300
C970        C  0.93674988  0.87325452  0.68717329    -0.27000
H971        H  0.91398110  0.86252497  0.60075079     0.12000
H972        H  0.90961773  0.90081335  0.58076867     0.13100
H973        H  0.94097206  0.91488943  0.70931694     0.12200
H974        H  0.93759126  0.95311957  0.68917395     0.11400
H975        H  0.92928441  0.97695734  0.65203264     0.16800
H976        H  0.91081531  0.94398226  0.58302288     0.12700
H977        H  0.92858246  0.83892044  0.63663298     0.15600
H978        H  0.94413820  0.87235471  0.70596579     0.15400
C979        C  0.80978518  0.03532527  0.70443384    -0.17500
C980        C  0.83207544  0.02877802  0.69083661    -0.19700
C981        C  0.83140980  0.02869940  0.66489654     0.21000
C982        C  0.80783195  0.03452457  0.65251709    -0.02600
C983        C  0.78509090  0.04045862  0.66628146    -0.05700
C984        C  0.78627327  0.04147783  0.69234570     0.21200
C985        C  0.76163359  0.04667430  0.65390319     0.19400
C986        C  0.76098918  0.04661170  0.62796635    -0.17200
C987        C  0.78358173  0.04099833  0.61434180    -0.19400
C988        C  0.80718658  0.03511877  0.62639498     0.20900
C989        C  0.83015598  0.02992488  0.61283556    -0.32400
C990        C  0.85356605  0.02374401  0.62511267     0.01600
C991        C  0.85397846  0.02313134  0.65112771    -0.23700
C992        C  0.76475722  0.05058650  0.70562744    -0.28300
C993        C  0.74225767  0.05879389  0.69310696     0.07300
C994        C  0.74001657  0.05490101  0.66752875    -0.27000
H995        H  0.81111449  0.03606017  0.72439614     0.12000
H996        H  0.85004985  0.02431934  0.70060831     0.13100
H997        H  0.74320348  0.05161095  0.61818352     0.12200
H998        H  0.78266873  0.04153374  0.59434761     0.11400
H999        H  0.82969604  0.03009668  0.59280943     0.16800
H1000       H  0.87202462  0.01830784  0.66062567     0.12700
H1001       H  0.76683321  0.05403457  0.72521572     0.15600
H1002       H  0.72295763  0.06173366  0.65779464     0.15400
C1003       C  0.15439801  0.02527178  0.69992229    -0.17500
C1004       C  0.13260304  0.01810516  0.68612193    -0.19700
C1005       C  0.12969047  0.02513800  0.66139474     0.21000
C1006       C  0.14941356  0.03871653  0.65007413    -0.02600
C1007       C  0.17163269  0.04575844  0.66397642    -0.05700
C1008       C  0.17372248  0.03955012  0.68923200     0.21200
C1009       C  0.19093197  0.06008922  0.65303599     0.19400
C1010       C  0.18828989  0.06665717  0.62808847    -0.17200
C1011       C  0.16626614  0.05966725  0.61431495    -0.19400
C1012       C  0.14647371  0.04593241  0.62519971     0.20900
C1013       C  0.12377260  0.03938480  0.61180163    -0.32400
C1014       C  0.10401887  0.02568237  0.62303468     0.01600
C1015       C  0.10717475  0.01901175  0.64798784    -0.23700
C1016       C  0.19366732  0.04940258  0.70388768    -0.28300
C1017       C  0.21135668  0.06555086  0.69364772     0.07300
C1018       C  0.21121330  0.06921882  0.66778711    -0.27000
H1019       H  0.15570641  0.02023694  0.71920298     0.12000
H1020       H  0.11768843  0.00745805  0.69498118     0.13100
H1021       H  0.20288124  0.07778398  0.61941764     0.12200
H1022       H  0.16450415  0.06534116  0.59526213     0.11400
H1023       H  0.12169559  0.04461035  0.59263113     0.16800
H1024       H  0.09185675  0.00909403  0.65720043     0.12700
H1025       H  0.19337888  0.04675457  0.72373558     0.15600
H1026       H  0.22464580  0.08189849  0.65984646     0.15400
C1027       C  0.05748460  0.90161299  0.60660147    -0.17500
C1028       C  0.05569370  0.88037291  0.61945803    -0.19700
C1029       C  0.04357491  0.87924617  0.64278503     0.21000
C1030       C  0.03397549  0.89997950  0.65354993    -0.02600
C1031       C  0.03513478  0.92133960  0.64026823    -0.05700
C1032       C  0.04680953  0.92212594  0.61659856     0.21200
C1033       C  0.02437876  0.94183108  0.65057680     0.19400
C1034       C  0.01300583  0.94086898  0.67422750    -0.17200
C1035       C  0.01186147  0.91977160  0.68733863    -0.19400
C1036       C  0.02208038  0.89919192  0.67708938     0.20900
C1037       C  0.01864353  0.87760656  0.68908842    -0.32400
C1038       C  0.02489085  0.85653033  0.67706992     0.01600
C1039       C  0.03887835  0.85761533  0.65456267    -0.23700
C1040       C  0.04813325  0.94346865  0.60361416    -0.28300
C1041       C  0.03779697  0.96405824  0.61387914     0.07300
C1042       C  0.02572789  0.96299320  0.63731163    -0.27000
H1043       H  0.06680111  0.90190229  0.58858531     0.12000
H1044       H  0.06332828  0.86471493  0.61090358     0.13100
H1045       H  0.00473968  0.95641180  0.68250996     0.12200
H1046       H  0.00239017  0.91945187  0.70528710     0.11400
H1047       H  0.00717798  0.87695655  0.70600864     0.16800
H1048       H  0.04320341  0.84157661  0.64484432     0.12700
H1049       H  0.05843964  0.94435924  0.58608293     0.15600
H1050       H  0.01878691  0.97895519  0.64579990     0.15400
C1051       C  0.30484367  0.17332662  0.15812346    -0.17500
C1052       C  0.29156465  0.16691524  0.17978155    -0.19700
C1053       C  0.30558363  0.16278616  0.20173013     0.21000
C1054       C  0.33323801  0.16573599  0.20197456    -0.02600
C1055       C  0.34671640  0.17174817  0.17997464    -0.05700
C1056       C  0.33241752  0.17542202  0.15794154     0.21200
C1057       C  0.37453093  0.17334494  0.17985702     0.19400
C1058       C  0.38849364  0.16967780  0.20192117    -0.17200
C1059       C  0.37514167  0.16377922  0.22371789    -0.19400
C1060       C  0.34758021  0.16140404  0.22384544     0.20900
C1061       C  0.33439438  0.15288181  0.24483706    -0.32400
C1062       C  0.30730372  0.14754270  0.24387148     0.01600
C1063       C  0.29275541  0.15391389  0.22279580    -0.23700
C1064       C  0.34596524  0.18078695  0.13604444    -0.28300
C1065       C  0.37366525  0.18202263  0.13569718     0.07300
C1066       C  0.38786003  0.17830378  0.15764358    -0.27000
H1067       H  0.29358390  0.17612288  0.14135482     0.12000
H1068       H  0.27036608  0.16466497  0.17921834     0.13100
H1069       H  0.40980417  0.17095609  0.20222727     0.12200
H1070       H  0.38646589  0.16040689  0.24033095     0.11400
H1071       H  0.34576107  0.14742580  0.26082905     0.16800
H1072       H  0.27206427  0.14928451  0.22174225     0.12700
H1073       H  0.33501568  0.18382233  0.11911805     0.15600
H1074       H  0.40918045  0.17965391  0.15744710     0.15400
C1075       C  0.31660223  0.26402189  0.05375912    -0.17500
C1076       C  0.30330199  0.28539322  0.05444893    -0.19700
C1077       C  0.31657965  0.30578389  0.06139826     0.21000
C1078       C  0.34350574  0.30460765  0.06784448    -0.02600
C1079       C  0.35691553  0.28299463  0.06726998    -0.05700
C1080       C  0.34336665  0.26263345  0.06017904     0.21200
C1081       C  0.38379884  0.28173820  0.07395664     0.19400
C1082       C  0.39714016  0.30219257  0.08057372    -0.17200
C1083       C  0.38406500  0.32372439  0.08035207    -0.19400
C1084       C  0.35725342  0.32513646  0.07402940     0.20900
C1085       C  0.34452671  0.34685313  0.07182056    -0.32400
C1086       C  0.31848538  0.34824954  0.06286442     0.01600
C1087       C  0.30397934  0.32754772  0.05999423    -0.23700
C1088       C  0.35647404  0.24108842  0.06076332    -0.28300
C1089       C  0.38270968  0.23951258  0.06899346     0.07300
C1090       C  0.39651031  0.25994435  0.07488568    -0.27000
H1091       H  0.30591225  0.24854653  0.04829676     0.12000
H1092       H  0.28272622  0.28604226  0.04909867     0.13100
H1093       H  0.41776134  0.30156295  0.08576585     0.12200
H1094       H  0.39499880  0.33931992  0.08493783     0.11400
H1095       H  0.35595655  0.36271734  0.07352108     0.16800
H1096       H  0.28413541  0.32852073  0.05256409     0.12700
H1097       H  0.34564298  0.22523904  0.05687949     0.15600
H1098       H  0.41647930  0.25864856  0.08192033     0.15400
C1099       C  0.37963842  0.05012133  0.22637449    -0.17500
C1100       C  0.39266386  0.04316501  0.20479737    -0.19700
C1101       C  0.37826935  0.03696147  0.18369097     0.21000
C1102       C  0.35041256  0.03695636  0.18468885    -0.02600
C1103       C  0.33726107  0.04403974  0.20645154    -0.05700
C1104       C  0.35197598  0.05106065  0.22722499     0.21200
C1105       C  0.30943875  0.04531324  0.20693891     0.19400
C1106       C  0.29501403  0.03840924  0.18610462    -0.17200
C1107       C  0.30801350  0.03097145  0.16472744    -0.19400
C1108       C  0.33567200  0.03059426  0.16369710     0.20900
C1109       C  0.34882552  0.02430695  0.14192489    -0.32400
C1110       C  0.37655199  0.02464455  0.14061146     0.01600
C1111       C  0.39117949  0.03100939  0.16155792    -0.23700
C1112       C  0.33887872  0.06067972  0.24766539    -0.28300
C1113       C  0.31138242  0.06419195  0.24719345     0.07300
C1114       C  0.29666527  0.05518839  0.22743972    -0.27000
H1115       H  0.39123779  0.05544861  0.24217089     0.12000
H1116       H  0.41402535  0.04306477  0.20447494     0.13100
H1117       H  0.27366934  0.03928270  0.18613461     0.12200
H1118       H  0.29642111  0.02603406  0.14878030     0.11400
H1119       H  0.33749091  0.01936931  0.12579240     0.16800
H1120       H  0.41253691  0.03095028  0.16069518     0.12700
H1121       H  0.35030447  0.06811865  0.26260438     0.15600
H1122       H  0.27559310  0.05838723  0.22672965     0.15400
C1123       C  0.29853169  0.92420829  0.06651577    -0.17500
C1124       C  0.31299134  0.94492356  0.06486914    -0.19700
C1125       C  0.34028157  0.94493803  0.06919879     0.21000
C1126       C  0.35315547  0.92384001  0.07518857    -0.02600
C1127       C  0.33852002  0.90286498  0.07679732    -0.05700
C1128       C  0.31109817  0.90305612  0.07235920     0.21200
C1129       C  0.35144674  0.88160267  0.08199235     0.19400
C1130       C  0.37877858  0.88165508  0.08629344    -0.17200
C1131       C  0.39315741  0.90251275  0.08535987    -0.19400
C1132       C  0.38058343  0.92372557  0.07975699     0.20900
C1133       C  0.39463959  0.94492983  0.07975832    -0.32400
C1134       C  0.38159453  0.96616162  0.07506008     0.01600
C1135       C  0.35464450  0.96584699  0.06883216    -0.23700
C1136       C  0.29715289  0.88188353  0.07162014    -0.28300
C1137       C  0.31069936  0.86042554  0.07276529     0.07300
C1138       C  0.33727178  0.86051703  0.08058320    -0.27000
H1139       H  0.27756180  0.92466459  0.06272132     0.12000
H1140       H  0.30278407  0.96097984  0.06028528     0.13100
H1141       H  0.38912317  0.86549174  0.09009323     0.12200
H1142       H  0.41417218  0.90202739  0.08892675     0.11400
H1143       H  0.41519867  0.94513458  0.08523326     0.16800
H1144       H  0.34438451  0.98222968  0.06586030     0.12700
H1145       H  0.27679763  0.88204180  0.06546365     0.15600
H1146       H  0.34795199  0.84413949  0.08135111     0.15400
C1147       C  0.29482385  0.03324250  0.85956912    -0.17500
C1148       C  0.30851905  0.02703460  0.88105772    -0.19700
C1149       C  0.33618508  0.02739568  0.88151525     0.21000
C1150       C  0.35026074  0.03304299  0.85983162    -0.02600
C1151       C  0.33640482  0.03901108  0.83801153    -0.05700
C1152       C  0.30855826  0.03978011  0.83811811     0.21200
C1153       C  0.35041067  0.04573262  0.81662618     0.19400
C1154       C  0.37811305  0.04520096  0.81685527    -0.17200
C1155       C  0.39184224  0.03921071  0.83844592    -0.19400
C1156       C  0.37813029  0.03363691  0.86020988     0.20900
C1157       C  0.39171090  0.02888653  0.88237500    -0.32400
C1158       C  0.37771078  0.02325421  0.90398867     0.01600
C1159       C  0.34998595  0.02249262  0.90336161    -0.23700
C1160       C  0.29506053  0.04918221  0.81767612    -0.28300
C1161       C  0.30908155  0.05850957  0.79753563     0.07300
C1162       C  0.33657899  0.05500244  0.79629918    -0.27000
H1163       H  0.27346852  0.03368391  0.85998409     0.12000
H1164       H  0.29744626  0.02254649  0.89752787     0.13100
H1165       H  0.38919308  0.05025063  0.80057661     0.12200
H1166       H  0.41320339  0.03950733  0.83828025     0.11400
H1167       H  0.41308247  0.02910334  0.88274594     0.16800
H1168       H  0.33917408  0.01804339  0.92002012     0.12700
H1169       H  0.27399053  0.05223015  0.81893148     0.15600
H1170       H  0.34750290  0.06255280  0.78101649     0.15400
C1171       C  0.37835234  0.88069372  0.96555519    -0.17500
C1172       C  0.39290576  0.90128683  0.96251066    -0.19700
C1173       C  0.38165691  0.92303376  0.96809266     0.21000
C1174       C  0.35527756  0.92398645  0.97641677    -0.02600
C1175       C  0.34028685  0.90327184  0.97859077    -0.05700
C1176       C  0.35202674  0.88145823  0.97363182     0.21200
C1177       C  0.31383304  0.90434430  0.98657859     0.19400
C1178       C  0.30266913  0.92601431  0.99254975    -0.17200
C1179       C  0.31755076  0.94645358  0.99063978    -0.19400
C1180       C  0.34382460  0.94564200  0.98254739     0.20900
C1181       C  0.35853182  0.96618787  0.97973016    -0.32400
C1182       C  0.38440048  0.96554086  0.97041069     0.01600
C1183       C  0.39598609  0.94387558  0.96487314    -0.23700
C1184       C  0.33788338  0.86081534  0.97861853    -0.28300
C1185       C  0.31210864  0.86176453  0.98835499     0.07300
C1186       C  0.29960950  0.88363742  0.99029745    -0.27000
H1187       H  0.38777308  0.86412774  0.96175557     0.12000
H1188       H  0.41309609  0.90017082  0.95606821     0.13100
H1189       H  0.28252955  0.92711831  0.99913723     0.12200
H1190       H  0.30846890  0.96293118  0.99545173     0.11400
H1191       H  0.34927881  0.98292064  0.98319147     0.16800
H1192       H  0.41559386  0.94338566  0.95690355     0.12700
H1193       H  0.34794873  0.84414824  0.97778795     0.15600
H1194       H  0.28014417  0.88455891  0.99857001     0.15400
C1195       C  0.38695592  0.32570552  0.96754969    -0.17500
C1196       C  0.39941530  0.30385370  0.96767284    -0.19700
C1197       C  0.38477579  0.28338628  0.97141737     0.21000
C1198       C  0.35716935  0.28503829  0.97460770    -0.02600
C1199       C  0.34452439  0.30706522  0.97396474    -0.05700
C1200       C  0.35954992  0.32753383  0.97088458     0.21200
C1201       C  0.31697854  0.30865614  0.97737974     0.19400
C1202       C  0.30222208  0.28819903  0.98064091    -0.17200
C1203       C  0.31469317  0.26642009  0.98114743    -0.19400
C1204       C  0.34215821  0.26468625  0.97842541     0.20900
C1205       C  0.35470091  0.24287324  0.97848376    -0.32400
C1206       C  0.38198053  0.24088700  0.97396587     0.01600
C1207       C  0.39703268  0.26127940  0.97105548    -0.23700
C1208       C  0.34726035  0.34944478  0.97335273    -0.28300
C1209       C  0.32043934  0.35103246  0.98015621     0.07300
C1210       C  0.30500771  0.33066933  0.97964354    -0.27000
H1211       H  0.39885038  0.34123133  0.96525876     0.12000
H1212       H  0.42057173  0.30298478  0.96503840     0.13100
H1213       H  0.28107782  0.28907402  0.98337285     0.12200
H1214       H  0.30284880  0.25091471  0.98382735     0.11400
H1215       H  0.34291440  0.22717259  0.98001055     0.16800
H1216       H  0.41785620  0.25984643  0.96678206     0.12700
H1217       H  0.35934461  0.36499926  0.97400165     0.15600
H1218       H  0.28445966  0.33166854  0.98512585     0.15400
C1219       C  0.29067357  0.17103169  0.86379153    -0.17500
C1220       C  0.30387076  0.17875626  0.88494801    -0.19700
C1221       C  0.33153002  0.17804987  0.88615464     0.21000
C1222       C  0.34608677  0.17075443  0.86536909    -0.02600
C1223       C  0.33278353  0.16361314  0.84377788    -0.05700
C1224       C  0.30492994  0.16286717  0.84333432     0.21200
C1225       C  0.34737763  0.15569580  0.82327895     0.19400
C1226       C  0.37503737  0.15578705  0.82415256    -0.17200
C1227       C  0.38818734  0.16251900  0.84565415    -0.19400
C1228       C  0.37390545  0.16956191  0.86651595     0.20900
C1229       C  0.38693550  0.17502740  0.88860470    -0.32400
C1230       C  0.37256786  0.18216729  0.90938062     0.01600
C1231       C  0.34488838  0.18394652  0.90793704    -0.23700
C1232       C  0.29201555  0.15208389  0.82343356    -0.28300
C1233       C  0.30670126  0.14231984  0.80401986     0.07300
C1234       C  0.33414778  0.14581873  0.80319668    -0.27000
H1235       H  0.26931108  0.17076427  0.86372816     0.12000
H1236       H  0.29241227  0.18451537  0.90068897     0.13100
H1237       H  0.38650157  0.14972026  0.80854883     0.12200
H1238       H  0.40952910  0.16171648  0.84614739     0.11400
H1239       H  0.40826605  0.17408199  0.88957544     0.16800
H1240       H  0.33376548  0.18955963  0.92396879     0.12700
H1241       H  0.27092590  0.14912750  0.82429819     0.15600
H1242       H  0.34547711  0.13805339  0.78834269     0.15400
C1243       C  0.65936430  0.28683532  0.05966629    -0.17500
C1244       C  0.64730275  0.26493084  0.06017713    -0.19700
C1245       C  0.62033653  0.26284539  0.06560166     0.21000
C1246       C  0.60541284  0.28301362  0.07081464    -0.02600
C1247       C  0.61765414  0.30513738  0.07048364    -0.05700
C1248       C  0.64468293  0.30704210  0.06460878     0.21200
C1249       C  0.60262130  0.32541175  0.07498935     0.19400
C1250       C  0.57573418  0.32328429  0.08074105    -0.17200
C1251       C  0.56369865  0.30132552  0.08148583    -0.19400
C1252       C  0.57827452  0.28108157  0.07633016     0.20900
C1253       C  0.56646402  0.25889792  0.07746128    -0.32400
C1254       C  0.58151344  0.23869051  0.07327805     0.01600
C1255       C  0.60826501  0.24087722  0.06677332    -0.23700
C1256       C  0.65596732  0.32917111  0.06155787    -0.28300
C1257       C  0.64007502  0.34926882  0.06230730     0.07300
C1258       C  0.61413375  0.34744635  0.07138186    -0.27000
H1259       H  0.68007339  0.28801021  0.05489101     0.12000
H1260       H  0.65905927  0.24960671  0.05621568     0.13100
H1261       H  0.56386631  0.33865798  0.08417336     0.12200
H1262       H  0.54290215  0.30019649  0.08590266     0.11400
H1263       H  0.54607158  0.25722443  0.08320513     0.16800
H1264       H  0.62005830  0.22528073  0.06421986     0.12700
H1265       H  0.67588227  0.33050431  0.05435646     0.15600
H1266       H  0.60178666  0.36289351  0.07177407     0.15400
C1267       C  0.57623842  0.15441307  0.22510725    -0.17500
C1268       C  0.56531312  0.16112317  0.20241256    -0.19700
C1269       C  0.58162850  0.16781177  0.18268860     0.21000
C1270       C  0.60922387  0.16855160  0.18616618    -0.02600
C1271       C  0.62027004  0.16178526  0.20911559    -0.05700
C1272       C  0.60368783  0.15430030  0.22850656     0.21200
C1273       C  0.64793057  0.16124502  0.21217240     0.19400
C1274       C  0.66420799  0.16859831  0.19266364    -0.17200
C1275       C  0.65325735  0.17565067  0.17006475    -0.19400
C1276       C  0.62582869  0.17527287  0.16647505     0.20900
C1277       C  0.61472816  0.18110525  0.14345660    -0.32400
C1278       C  0.58724626  0.17997799  0.13972491     0.01600
C1279       C  0.57085122  0.17341183  0.15947836    -0.23700
C1280       C  0.61487295  0.14502624  0.25015806    -0.28300
C1281       C  0.64238357  0.14210320  0.25222192     0.07300
C1282       C  0.65881641  0.15156992  0.23383708    -0.27000
H1283       H  0.56322619  0.14864698  0.23978420     0.12000
H1284       H  0.54409775  0.16060688  0.20012699     0.13100
H1285       H  0.68546461  0.16831830  0.19466173     0.12200
H1286       H  0.66629952  0.18087227  0.15518461     0.11400
H1287       H  0.62746947  0.18622903  0.12828964     0.16800
H1288       H  0.54967173  0.17294444  0.15681417     0.12700
H1289       H  0.60215028  0.13726076  0.26403672     0.15600
H1290       H  0.67994629  0.14887616  0.23507606     0.15400
C1291       C  0.56900895  0.32487295  0.96290641    -0.17500
C1292       C  0.55681909  0.30301912  0.96127903    -0.19700
C1293       C  0.57163929  0.28246851  0.96398585     0.21000
C1294       C  0.59919595  0.28402845  0.96752683    -0.02600
C1295       C  0.61158059  0.30606174  0.96849364    -0.05700
C1296       C  0.59631971  0.32659163  0.96685957     0.21200
C1297       C  0.63907731  0.30752964  0.97223207     0.19400
C1298       C  0.65405471  0.28700591  0.97415474    -0.17200
C1299       C  0.64181316  0.26521670  0.97323252    -0.19400
C1300       C  0.61440068  0.26357650  0.97028505     0.20900
C1301       C  0.60207248  0.24180134  0.96930147    -0.32400
C1302       C  0.57485638  0.24003694  0.96483648     0.01600
C1303       C  0.55960862  0.26040192  0.96253212    -0.23700
C1304       C  0.60828247  0.34829261  0.97128841    -0.28300
C1305       C  0.63515863  0.34957412  0.97782844     0.07300
C1306       C  0.65078307  0.32936144  0.97611453    -0.27000
H1307       H  0.55697722  0.34045068  0.96153993     0.12000
H1308       H  0.53571707  0.30220196  0.95829528     0.13100
H1309       H  0.67517244  0.28780698  0.97704270     0.12200
H1310       H  0.65377655  0.24963002  0.97504005     0.11400
H1311       H  0.61390838  0.22604929  0.97031275     0.16800
H1312       H  0.53878214  0.25902727  0.95827874     0.12700
H1313       H  0.59604984  0.36371650  0.97305482     0.15600
H1314       H  0.67132827  0.33014279  0.98162231     0.15400
C1315       C  0.66350153  0.15683244  0.85916399    -0.17500
C1316       C  0.65011483  0.16256884  0.88091337    -0.19700
C1317       C  0.62363541  0.16968275  0.88010534     0.21000
C1318       C  0.61081723  0.17198237  0.85706643    -0.02600
C1319       C  0.62432892  0.16615072  0.83510136    -0.05700
C1320       C  0.65061336  0.15806976  0.83624938     0.21200
C1321       C  0.61097262  0.16688632  0.81222455     0.19400
C1322       C  0.58484169  0.17496634  0.81132406    -0.17200
C1323       C  0.57163693  0.18125988  0.83302870    -0.19400
C1324       C  0.58418989  0.17921271  0.85605168     0.20900
C1325       C  0.57049552  0.18382960  0.87809535    -0.32400
C1326       C  0.58300661  0.18092707  0.90104444     0.01600
C1327       C  0.60963037  0.17419751  0.90193338    -0.23700
C1328       C  0.66268106  0.14932564  0.81487925    -0.28300
C1329       C  0.64832227  0.14739137  0.79278599     0.07300
C1330       C  0.62313392  0.15754633  0.79113522    -0.27000
H1331       H  0.68365473  0.15062006  0.86036604     0.12000
H1332       H  0.66028917  0.16089326  0.89843521     0.13100
H1333       H  0.57433490  0.17573725  0.79391054     0.12200
H1334       H  0.55130729  0.18700200  0.83188002     0.11400
H1335       H  0.55018959  0.18975012  0.87747610     0.16800
H1336       H  0.61942937  0.17268310  0.91967907     0.12700
H1337       H  0.68184069  0.14097822  0.81628286     0.15600
H1338       H  0.61185283  0.15556296  0.77426077     0.15400
C1339       C  0.56527652  0.87958769  0.97355680    -0.17500
C1340       C  0.55407885  0.90184629  0.97098095    -0.19700
C1341       C  0.57006320  0.92180919  0.97084899     0.21000
C1342       C  0.59767652  0.91919632  0.97318697    -0.02600
C1343       C  0.60898457  0.89671839  0.97568497    -0.05700
C1344       C  0.59269359  0.87682741  0.97607315     0.21200
C1345       C  0.63651090  0.89423771  0.97868839     0.19400
C1346       C  0.65251661  0.91415983  0.97861885    -0.17200
C1347       C  0.64139988  0.93634248  0.97572003    -0.19400
C1348       C  0.61403365  0.93904661  0.97308036     0.20900
C1349       C  0.60284608  0.96121332  0.96970328    -0.32400
C1350       C  0.57548181  0.96395864  0.96651846     0.01600
C1351       C  0.55908199  0.94424777  0.96770906    -0.23700
C1352       C  0.60388494  0.85478999  0.98093736    -0.28300
C1353       C  0.63095547  0.85259197  0.98666890     0.07300
C1354       C  0.64734570  0.87213515  0.98363298    -0.27000
H1355       H  0.55241817  0.86453342  0.97400592     0.12000
H1356       H  0.53287724  0.90344415  0.96915268     0.13100
H1357       H  0.67364332  0.91261148  0.98113401     0.12200
H1358       H  0.65422427  0.95142481  0.97568535     0.11400
H1359       H  0.61553451  0.97637261  0.96846796     0.16800
H1360       H  0.53804973  0.94627167  0.96481498     0.12700
H1361       H  0.59103929  0.83993230  0.98380225     0.15600
H1362       H  0.66802604  0.87073840  0.98854270     0.15400
C1363       C  0.55936099  0.04832530  0.83949444    -0.17500
C1364       C  0.57086649  0.05563892  0.81723993    -0.19700
C1365       C  0.59829830  0.05432901  0.81385829     0.21000
C1366       C  0.61426328  0.04528886  0.83297153    -0.02600
C1367       C  0.60264753  0.03791760  0.85544491    -0.05700
C1368       C  0.57506940  0.03957592  0.85878957     0.21200
C1369       C  0.61871460  0.02940375  0.87476058     0.19400
C1370       C  0.64615262  0.02838527  0.87151148    -0.17200
C1371       C  0.65766551  0.03596900  0.84940430    -0.19400
C1372       C  0.64194685  0.04456439  0.83006864     0.20900
C1373       C  0.65355697  0.05404448  0.80869922    -0.32400
C1374       C  0.63789979  0.06471436  0.79047230     0.01600
C1375       C  0.61020361  0.06347195  0.79248461    -0.23700
C1376       C  0.56376822  0.03264710  0.88141773    -0.28300
C1377       C  0.57968155  0.02384940  0.90060839     0.07300
C1378       C  0.60712120  0.02227013  0.89708180    -0.27000
H1379       H  0.53818557  0.04975794  0.84171353     0.12000
H1380       H  0.55834025  0.06276181  0.80284124     0.13100
H1381       H  0.65876831  0.02199688  0.88621867     0.12200
H1382       H  0.67893699  0.03547662  0.84759041     0.11400
H1383       H  0.67483843  0.05553269  0.80757164     0.16800
H1384       H  0.59810418  0.07224035  0.77876306     0.12700
H1385       H  0.54261140  0.03380598  0.88403479     0.15600
H1386       H  0.61948979  0.01574499  0.91193032     0.15400
C1387       C  0.64879583  0.03264286  0.16651379    -0.17500
C1388       C  0.66182958  0.03899156  0.18828288    -0.19700
C1389       C  0.64752914  0.04314462  0.21005418     0.21000
C1390       C  0.61987633  0.04025042  0.21001908    -0.02600
C1391       C  0.60667205  0.03430383  0.18794263    -0.05700
C1392       C  0.62120209  0.03059153  0.16606346     0.21200
C1393       C  0.57886355  0.03272567  0.18762687     0.19400
C1394       C  0.56462014  0.03649745  0.20945942    -0.17200
C1395       C  0.57768624  0.04235822  0.23130231    -0.19400
C1396       C  0.60523017  0.04459596  0.23169138     0.20900
C1397       C  0.61806916  0.05309280  0.25273356    -0.32400
C1398       C  0.64508015  0.05849683  0.25197630     0.01600
C1399       C  0.66001410  0.05207344  0.23118313    -0.23700
C1400       C  0.60782180  0.02501200  0.14415287    -0.28300
C1401       C  0.58012442  0.02352890  0.14378564     0.07300
C1402       C  0.56576685  0.02749065  0.16549384    -0.27000
H1403       H  0.66025834  0.02980906  0.14989334     0.12000
H1404       H  0.68304354  0.04118784  0.18793775     0.13100
H1405       H  0.54330396  0.03527406  0.20955504     0.12200
H1406       H  0.56615593  0.04580088  0.24774717     0.11400
H1407       H  0.60646857  0.05859400  0.26851483     0.16800
H1408       H  0.68070319  0.05676050  0.23034371     0.12700
H1409       H  0.61886767  0.02167715  0.12737020     0.15600
H1410       H  0.54446542  0.02592644  0.16522073     0.15400
C1411       C  0.63741733  0.93526282  0.07635736    -0.17500
C1412       C  0.64976638  0.91346714  0.07563923    -0.19700
C1413       C  0.63490521  0.89294613  0.07758912     0.21000
C1414       C  0.60734431  0.89445561  0.08104293    -0.02600
C1415       C  0.59482002  0.91655943  0.08183094    -0.05700
C1416       C  0.60997741  0.93697473  0.07913092     0.21200
C1417       C  0.56720380  0.91823871  0.08502375     0.19400
C1418       C  0.55245041  0.89763130  0.08745470    -0.17200
C1419       C  0.56478389  0.87571454  0.08601935    -0.19400
C1420       C  0.59220560  0.87391553  0.08253923     0.20900
C1421       C  0.60443994  0.85215909  0.07835341    -0.32400
C1422       C  0.63142017  0.85087286  0.07179887     0.01600
C1423       C  0.64684963  0.87110120  0.07390370    -0.23700
C1424       C  0.59760830  0.95882224  0.07977281    -0.28300
C1425       C  0.57029048  0.96088488  0.08376542     0.07300
C1426       C  0.55507214  0.94046294  0.08621789    -0.27000
H1427       H  0.64934296  0.95082232  0.07449962     0.12000
H1428       H  0.67090731  0.91266208  0.07286867     0.13100
H1429       H  0.53128672  0.89844708  0.09005920     0.12200
H1430       H  0.55277598  0.86014875  0.08716677     0.11400
H1431       H  0.59229131  0.83674416  0.07644315     0.16800
H1432       H  0.66746031  0.87038708  0.06858254     0.12700
H1433       H  0.60950164  0.97448843  0.07862753     0.15600
H1434       H  0.53416886  0.94190053  0.09011891     0.15400
C1435       C  0.04294433  0.52083758  0.23585295    -0.17500
C1436       C  0.04285429  0.50860854  0.25836122    -0.19700
C1437       C  0.03597785  0.48489922  0.25922142     0.21000
C1438       C  0.02945766  0.47338526  0.23706620    -0.02600
C1439       C  0.02875941  0.48589638  0.21446528    -0.05700
C1440       C  0.03572702  0.50971592  0.21380811     0.21200
C1441       C  0.02139261  0.47447543  0.19249349     0.19400
C1442       C  0.01486581  0.45072200  0.19326072    -0.17200
C1443       C  0.01569196  0.43833758  0.21557699    -0.19400
C1444       C  0.02285541  0.44951062  0.23758435     0.20900
C1445       C  0.02143337  0.43766434  0.26030368    -0.32400
C1446       C  0.02407366  0.44983182  0.28268323     0.01600
C1447       C  0.03342157  0.47298746  0.28194557    -0.23700
C1448       C  0.03653838  0.52163315  0.19099037    -0.28300
C1449       C  0.03042008  0.51000137  0.16891935     0.07300
C1450       C  0.02196466  0.48667795  0.16995804    -0.27000
H1451       H  0.04852283  0.53905846  0.23571469     0.12000
H1452       H  0.04790894  0.51777722  0.27515460     0.13100
H1453       H  0.00925054  0.44166829  0.17655103     0.12200
H1454       H  0.01025563  0.42008220  0.21569135     0.11400
H1455       H  0.01379616  0.42001333  0.26070618     0.16800
H1456       H  0.03508996  0.48261520  0.29906129     0.12700
H1457       H  0.04378248  0.53938603  0.19015652     0.15600
H1458       H  0.01795729  0.47751088  0.15288737     0.15400
C1459       C  0.16882457  0.51372716  0.08540155    -0.17500
C1460       C  0.19160096  0.50126608  0.07891845    -0.19700
C1461       C  0.19174232  0.47676818  0.07922356     0.21000
C1462       C  0.16885646  0.46471851  0.08663925    -0.02600
C1463       C  0.14590351  0.47732325  0.09341712    -0.05700
C1464       C  0.14574438  0.50196238  0.09247311     0.21200
C1465       C  0.12292948  0.46523761  0.10052342     0.19400
C1466       C  0.12306554  0.44075061  0.10083528    -0.17200
C1467       C  0.14551831  0.42830658  0.09349355    -0.19400
C1468       C  0.16846961  0.44008694  0.08614097     0.20900
C1469       C  0.19023627  0.42777583  0.07653437    -0.32400
C1470       C  0.21234215  0.43977853  0.06733589     0.01600
C1471       C  0.21360978  0.46417509  0.07039926    -0.23700
C1472       C  0.12251344  0.51433758  0.09846875    -0.28300
C1473       C  0.09958746  0.50237345  0.10583903     0.07300
C1474       C  0.10012404  0.47780447  0.10692074    -0.27000
H1475       H  0.16918429  0.53259723  0.08461013     0.12000
H1476       H  0.20893638  0.51081530  0.07305061     0.13100
H1477       H  0.10557838  0.43119124  0.10626459     0.12200
H1478       H  0.14477220  0.40943745  0.09317262     0.11400
H1479       H  0.18874148  0.40914234  0.07358730     0.16800
H1480       H  0.23022405  0.47358648  0.06265515     0.12700
H1481       H  0.12239843  0.53322687  0.09792478     0.15600
H1482       H  0.08256192  0.46844352  0.11258711     0.15400
C1483       C  0.19141783  0.50020841  0.96448711    -0.17500
C1484       C  0.16848021  0.51293324  0.95925036    -0.19700
C1485       C  0.14432794  0.50150395  0.95578174     0.21000
C1486       C  0.14341694  0.47691319  0.95723398    -0.02600
C1487       C  0.16659472  0.46405689  0.96251340    -0.05700
C1488       C  0.19064778  0.47580193  0.96637153     0.21200
C1489       C  0.16545294  0.43956059  0.96499298     0.19400
C1490       C  0.14133591  0.42809376  0.96146345    -0.17200
C1491       C  0.11849775  0.44077363  0.95575140    -0.19400
C1492       C  0.11928652  0.46518700  0.95377546     0.20900
C1493       C  0.09642577  0.47807725  0.94827191    -0.32400
C1494       C  0.09720019  0.50258860  0.94659539     0.01600
C1495       C  0.12114956  0.51419956  0.95069263    -0.23700
C1496       C  0.21296862  0.46313995  0.97398578    -0.28300
C1497       C  0.21119193  0.43908540  0.97895881     0.07300
C1498       C  0.18790745  0.42719439  0.97284266    -0.27000
H1499       H  0.20968049  0.50951635  0.96758184     0.12000
H1500       H  0.16959446  0.53176501  0.95812659     0.13100
H1501       H  0.14004752  0.40932950  0.96348860     0.12200
H1502       H  0.10012327  0.43149353  0.95318462     0.11400
H1503       H  0.07798928  0.46906830  0.94497287     0.16800
H1504       H  0.12187381  0.53302614  0.94904451     0.12700
H1505       H  0.23063584  0.47243611  0.97939803     0.15600
H1506       H  0.18624435  0.40881028  0.97734157     0.15400
C1507       C  0.04200871  0.50482009  0.79329966    -0.17500
C1508       C  0.04140869  0.51818110  0.81495070    -0.19700
C1509       C  0.03485248  0.50791069  0.83775263     0.21000
C1510       C  0.02900822  0.48385090  0.83864853    -0.02600
C1511       C  0.03058989  0.47020679  0.81695578    -0.05700
C1512       C  0.03667003  0.48079837  0.79408218     0.21200
C1513       C  0.02540745  0.44606487  0.81806152     0.19400
C1514       C  0.01851081  0.43580524  0.84074950    -0.17200
C1515       C  0.01667127  0.44932163  0.86213066    -0.19400
C1516       C  0.02197459  0.47331073  0.86129455     0.20900
C1517       C  0.02174856  0.48663415  0.88295955    -0.32400
C1518       C  0.02951387  0.51017239  0.88262379     0.01600
C1519       C  0.03528913  0.52092073  0.85982681    -0.23700
C1520       C  0.03518985  0.46756996  0.77223359    -0.28300
C1521       C  0.02685854  0.44411063  0.77301289     0.07300
C1522       C  0.02505999  0.43295637  0.79619322    -0.27000
H1523       H  0.04653150  0.51332007  0.77589388     0.12000
H1524       H  0.04597908  0.53659469  0.81383399     0.13100
H1525       H  0.01406529  0.41736710  0.84188549     0.12200
H1526       H  0.01130033  0.44095273  0.87939652     0.11400
H1527       H  0.01798478  0.47815554  0.90056555     0.16800
H1528       H  0.04198741  0.53885196  0.85953560     0.12700
H1529       H  0.03633234  0.47638964  0.75450438     0.15600
H1530       H  0.01835863  0.41501773  0.79697781     0.15400
C1531       C  0.80889963  0.43228104  0.94715679    -0.17500
C1532       C  0.83107080  0.44568934  0.94127251    -0.19700
C1533       C  0.82984729  0.47012906  0.94186860     0.21000
C1534       C  0.80579878  0.48123057  0.94755947    -0.02600
C1535       C  0.78324825  0.46764278  0.95317396    -0.05700
C1536       C  0.78501516  0.44305216  0.95357244     0.21200
C1537       C  0.75939830  0.47864797  0.95974629     0.19400
C1538       C  0.75801802  0.50312632  0.95967626    -0.17200
C1539       C  0.78032407  0.51658332  0.95403163    -0.19400
C1540       C  0.80449621  0.50584637  0.94838110     0.20900
C1541       C  0.82739877  0.51917939  0.94371882    -0.32400
C1542       C  0.85144036  0.50811604  0.93801225     0.01600
C1543       C  0.85235022  0.48359619  0.93708184    -0.23700
C1544       C  0.76369705  0.42975874  0.96245367    -0.28300
C1545       C  0.74091412  0.44074955  0.97156040     0.07300
C1546       C  0.73815824  0.46506642  0.96833495    -0.27000
H1547       H  0.81064909  0.41345552  0.94734440     0.12000
H1548       H  0.84937850  0.43691182  0.93677510     0.13100
H1549       H  0.73986240  0.51189317  0.96470276     0.12200
H1550       H  0.77878591  0.53541236  0.95456827     0.11400
H1551       H  0.82645744  0.53805134  0.94407313     0.16800
H1552       H  0.87078567  0.47498442  0.93258859     0.12700
H1553       H  0.76621023  0.41117509  0.96540191     0.15600
H1554       H  0.72090983  0.47369224  0.97587064     0.15400
C1555       C  0.91570930  0.50441638  0.79008461    -0.17500
C1556       C  0.91414035  0.51881390  0.81093208    -0.19700
C1557       C  0.92078915  0.51020546  0.83447901     0.21000
C1558       C  0.92906559  0.48678869  0.83693385    -0.02600
C1559       C  0.92968434  0.47202066  0.81602267    -0.05700
C1560       C  0.92338869  0.48096082  0.79240865     0.21200
C1561       C  0.93730978  0.44847577  0.81866290     0.19400
C1562       C  0.94452815  0.43996663  0.84207430    -0.17200
C1563       C  0.94421499  0.45461968  0.86267895    -0.19400
C1564       C  0.93636149  0.47799864  0.86035053     0.20900
C1565       C  0.93433761  0.49233331  0.88124552    -0.32400
C1566       C  0.92416548  0.51509864  0.87931685     0.01600
C1567       C  0.91811090  0.52416648  0.85575091    -0.23700
C1568       C  0.92689966  0.46682850  0.77140604    -0.28300
C1569       C  0.93706818  0.44402569  0.77374261     0.07300
C1570       C  0.93965813  0.43435420  0.79761287    -0.27000
H1571       H  0.91100437  0.51167329  0.77209728     0.12000
H1572       H  0.90779383  0.53673326  0.80861358     0.13100
H1573       H  0.95087369  0.42204459  0.84439109     0.12200
H1574       H  0.94989303  0.44758469  0.88051770     0.11400
H1575       H  0.93831613  0.48507857  0.89941096     0.16800
H1576       H  0.90961036  0.54146485  0.85421500     0.12700
H1577       H  0.92535918  0.47458214  0.75315424     0.15600
H1578       H  0.94805153  0.41703264  0.79958514     0.15400
C1579       C  0.93747717  0.43606681  0.21599563    -0.17500
C1580       C  0.93606109  0.44787279  0.19334101    -0.19700
C1581       C  0.93018499  0.47179025  0.19248829     0.21000
C1582       C  0.92515873  0.48384257  0.21465301    -0.02600
C1583       C  0.92649839  0.47187117  0.23756873    -0.05700
C1584       C  0.93300272  0.44794121  0.23822940     0.21200
C1585       C  0.92240850  0.48404993  0.25983581     0.19400
C1586       C  0.91588955  0.50785350  0.25890220    -0.17200
C1587       C  0.91396116  0.51958790  0.23618002    -0.19400
C1588       C  0.91891628  0.50785567  0.21393715     0.20900
C1589       C  0.91706551  0.51951394  0.19099375    -0.32400
C1590       C  0.92153579  0.50746324  0.16881756     0.01600
C1591       C  0.92852836  0.48369772  0.16981505    -0.23700
C1592       C  0.93700371  0.43675355  0.26108537    -0.28300
C1593       C  0.93613270  0.44945461  0.28326175     0.07300
C1594       C  0.92696381  0.47268710  0.28257663    -0.27000
H1595       H  0.94264209  0.41773070  0.21615087     0.12000
H1596       H  0.93977894  0.43831580  0.17647109     0.13100
H1597       H  0.91269601  0.51751445  0.27579606     0.12200
H1598       H  0.90893189  0.53795076  0.23603287     0.11400
H1599       H  0.91071218  0.53755775  0.19027849     0.16800
H1600       H  0.93107953  0.47416174  0.15271778     0.12700
H1601       H  0.94468451  0.41909044  0.26137595     0.15600
H1602       H  0.92687832  0.48274817  0.29948601     0.15400
C1603       C  0.76451011  0.50114625  0.07198907    -0.17500
C1604       C  0.78697274  0.51315923  0.07975162    -0.19700
C1605       C  0.80896815  0.50094992  0.08877780     0.21000
C1606       C  0.80796473  0.47638010  0.09072160    -0.02600
C1607       C  0.78533361  0.46423168  0.08275713    -0.05700
C1608       C  0.76370054  0.47671344  0.07303190     0.21200
C1609       C  0.78497346  0.43958684  0.08318097     0.19400
C1610       C  0.80661712  0.42740327  0.09298808    -0.17200
C1611       C  0.82883344  0.43946579  0.10136523    -0.19400
C1612       C  0.82990577  0.46389776  0.09979651     0.20900
C1613       C  0.85267529  0.47604319  0.10676914    -0.32400
C1614       C  0.85398036  0.50052658  0.10462589     0.01600
C1615       C  0.83202858  0.51285010  0.09560527    -0.23700
C1616       C  0.74260108  0.46453714  0.06261483    -0.28300
C1617       C  0.74358577  0.44014218  0.06037855     0.07300
C1618       C  0.76401732  0.42764377  0.07192552    -0.27000
H1619       H  0.74807250  0.51094454  0.06443612     0.12000
H1620       H  0.78732246  0.53199537  0.07826306     0.13100
H1621       H  0.80666005  0.40852057  0.09356713     0.12200
H1622       H  0.84547157  0.42964048  0.10847464     0.11400
H1623       H  0.86958704  0.46642504  0.11366973     0.16800
H1624       H  0.83279132  0.53169832  0.09429421     0.12700
H1625       H  0.72703944  0.47413066  0.05327401     0.15600
H1626       H  0.76501736  0.40887606  0.06980357     0.15400
C1627       C  0.03692650  0.69644394  0.25808395    -0.17500
C1628       C  0.03631156  0.68388953  0.23595234    -0.19700
C1629       C  0.03021551  0.69508248  0.21355263     0.21000
C1630       C  0.02496166  0.71927937  0.21347255    -0.02600
C1631       C  0.02600854  0.73203025  0.23577054    -0.05700
C1632       C  0.03169112  0.72049083  0.25823110     0.21200
C1633       C  0.02033070  0.75612681  0.23572617     0.19400
C1634       C  0.01431178  0.76737148  0.21332540    -0.17200
C1635       C  0.01357901  0.75481303  0.19121841    -0.19400
C1636       C  0.01869051  0.73074544  0.19112379     0.20900
C1637       C  0.01866937  0.71812405  0.16895685    -0.32400
C1638       C  0.02529718  0.69425195  0.16868451     0.01600
C1639       C  0.03031991  0.68271309  0.19114148    -0.23700
C1640       C  0.02974865  0.73274167  0.28061939    -0.28300
C1641       C  0.02064642  0.75598214  0.28085855     0.07300
C1642       C  0.01850221  0.76809790  0.25826167    -0.27000
H1643       H  0.04108178  0.68724444  0.27517577     0.12000
H1644       H  0.04046669  0.66536071  0.23638419     0.13100
H1645       H  0.00967835  0.78581616  0.21296346     0.12200
H1646       H  0.00885765  0.76391455  0.17419433     0.11400
H1647       H  0.01563810  0.72723783  0.15157856     0.16800
H1648       H  0.03630580  0.66456252  0.19092110     0.12700
H1649       H  0.03101270  0.72321816  0.29793526     0.15600
H1650       H  0.01113097  0.78586392  0.25827677     0.15400
C1651       C  0.18732659  0.70540670  0.08299195    -0.17500
C1652       C  0.16503776  0.69218657  0.08917208    -0.19700
C1653       C  0.14115885  0.70317394  0.09525029     0.21000
C1654       C  0.14010357  0.72780800  0.09590453    -0.02600
C1655       C  0.16267609  0.74116859  0.08980716    -0.05700
C1656       C  0.18625070  0.72988818  0.08292912     0.21200
C1657       C  0.16123628  0.76578114  0.08935951     0.19400
C1658       C  0.13760978  0.77678805  0.09621428    -0.17200
C1659       C  0.11539456  0.76358912  0.10256693    -0.19400
C1660       C  0.11630662  0.73912924  0.10198333     0.20900
C1661       C  0.09378198  0.72583319  0.10722061    -0.32400
C1662       C  0.09452844  0.70127029  0.10658302     0.01600
C1663       C  0.11832441  0.69003231  0.10053758    -0.23700
C1664       C  0.20765027  0.74319809  0.07431826    -0.28300
C1665       C  0.20545532  0.76758044  0.07138361     0.07300
C1666       C  0.18268578  0.77883627  0.08023719    -0.27000
H1667       H  0.20526668  0.69645158  0.07767481     0.12000
H1668       H  0.16635430  0.67334123  0.08873889     0.13100
H1669       H  0.13610683  0.79562930  0.09607865     0.12200
H1670       H  0.09730268  0.77253938  0.10743783     0.11400
H1671       H  0.07552518  0.73460405  0.11199772     0.16800
H1672       H  0.11916856  0.67115070  0.10049575     0.12700
H1673       H  0.22478238  0.73436321  0.06681885     0.15600
H1674       H  0.18049887  0.79745996  0.07737707     0.15400
C1675       C  0.91912786  0.67861970  0.23839965    -0.17500
C1676       C  0.91991613  0.69106808  0.26068244    -0.19700
C1677       C  0.92352025  0.71538249  0.26069471     0.21000
C1678       C  0.92646795  0.72716500  0.23793825    -0.02600
C1679       C  0.92640427  0.71450880  0.21546899    -0.05700
C1680       C  0.92235438  0.69014036  0.21563392     0.17600
C1681       C  0.93012175  0.72631929  0.19282755     0.19400
C1682       C  0.93392441  0.75054247  0.19277713    -0.17200
C1683       C  0.93389467  0.76302678  0.21493645    -0.19400
C1684       C  0.93024376  0.75153853  0.23763745     0.20900
C1685       C  0.93238390  0.76378392  0.26003683    -0.32400
C1686       C  0.93271267  0.75186888  0.28285198     0.01600
C1687       C  0.92623375  0.72785707  0.28300975    -0.23700
C1688       C  0.92042392  0.67800142  0.19303504    -0.28300
C1689       C  0.92271910  0.68998234  0.17037245     0.07300
C1690       C  0.92868832  0.71393954  0.17054756    -0.27000
H1691       H  0.91603364  0.65994348  0.23898931     0.12000
H1692       H  0.91786194  0.68162398  0.27795415     0.13100
H1693       H  0.93676406  0.75989055  0.17554187     0.12200
H1694       H  0.93714489  0.78167902  0.21433522     0.11400
H1695       H  0.93797429  0.78201991  0.25954349     0.16800
H1696       H  0.92709581  0.71831686  0.30033135     0.12700
H1697       H  0.91528269  0.65967014  0.19303035     0.15600
H1698       H  0.92997772  0.72331165  0.15313524     0.15400
C1699       C  0.80771353  0.77156236  0.09560832    -0.17500
C1700       C  0.82989518  0.75865217  0.10281335    -0.19700
C1701       C  0.82906584  0.73419405  0.10354050     0.21000
C1702       C  0.80535405  0.72262867  0.09783653    -0.02600
C1703       C  0.78274297  0.73573389  0.09097640    -0.05700
C1704       C  0.78414481  0.76029216  0.08929320     0.21200
C1705       C  0.75923182  0.72421171  0.08447807     0.19400
C1706       C  0.75823603  0.69975228  0.08583028    -0.17200
C1707       C  0.78061500  0.68678402  0.09261815    -0.19400
C1708       C  0.80448144  0.69799253  0.09819436     0.20900
C1709       C  0.82752428  0.68509010  0.10383272    -0.32400
C1710       C  0.85127940  0.69658473  0.10949565     0.01600
C1711       C  0.85167487  0.72115164  0.10949917    -0.23700
C1712       C  0.76273876  0.77298710  0.07950652    -0.28300
C1713       C  0.74008815  0.76145099  0.07098834     0.07300
C1714       C  0.73792056  0.73718881  0.07488604    -0.27000
H1715       H  0.80919664  0.79037181  0.09441524     0.12000
H1716       H  0.84793594  0.76780638  0.10725154     0.13100
H1717       H  0.74033842  0.69058764  0.08093294     0.12200
H1718       H  0.77938814  0.66793540  0.09301197     0.11400
H1719       H  0.82691021  0.66620841  0.10422674     0.16800
H1720       H  0.86983388  0.73013735  0.11398805     0.12700
H1721       H  0.76489593  0.79148884  0.07585539     0.15600
H1722       H  0.72087736  0.72810591  0.06764704     0.15400
C1723       C  0.94363858  0.76893339  0.84028009    -0.17500
C1724       C  0.94233610  0.75584180  0.86216656    -0.19700
C1725       C  0.93362634  0.73262592  0.86183411     0.21000
C1726       C  0.92557975  0.72268926  0.83926750    -0.02600
C1727       C  0.92686168  0.73596499  0.81710878    -0.05700
C1728       C  0.93623946  0.75908883  0.81760215     0.21200
C1729       C  0.92001841  0.72572319  0.79433357     0.19400
C1730       C  0.91051977  0.70272926  0.79416235    -0.17200
C1731       C  0.90861282  0.68978846  0.81616317    -0.19400
C1732       C  0.91654771  0.69942144  0.83878253     0.20900
C1733       C  0.91502516  0.68643336  0.86096344    -0.32400
C1734       C  0.92257808  0.69636700  0.88361388     0.01600
C1735       C  0.93221745  0.71938850  0.88374725    -0.23700
C1736       C  0.94018667  0.77127109  0.79526612    -0.28300
C1737       C  0.93676023  0.76013264  0.77229212     0.07300
C1738       C  0.92495614  0.73788775  0.77205921    -0.27000
H1739       H  0.95110141  0.78659962  0.84101268     0.12000
H1740       H  0.94844732  0.76381393  0.87934139     0.13100
H1741       H  0.90507734  0.69455042  0.77690491     0.12200
H1742       H  0.90136945  0.67205391  0.81540584     0.11400
H1743       H  0.90655538  0.66909929  0.86085341     0.16800
H1744       H  0.93703216  0.72746000  0.90125242     0.12700
H1745       H  0.94997278  0.78806385  0.79571155     0.15600
H1746       H  0.92283539  0.72890660  0.75459795     0.15400
C1747       C  0.76042848  0.70457296  0.96468879    -0.17500
C1748       C  0.78326463  0.69203194  0.95864810    -0.19700
C1749       C  0.80750521  0.70349549  0.95580927     0.21000
C1750       C  0.80850092  0.72800066  0.95824887    -0.02600
C1751       C  0.78535530  0.74070346  0.96407451    -0.05700
C1752       C  0.76132737  0.72886084  0.96781441     0.21200
C1753       C  0.78656523  0.76507882  0.96743024     0.19400
C1754       C  0.81069310  0.77662346  0.96401407    -0.17200
C1755       C  0.83354347  0.76409409  0.95805555    -0.19400
C1756       C  0.83272654  0.73976500  0.95546076     0.20900
C1757       C  0.85567749  0.72700725  0.95009754    -0.32400
C1758       C  0.85484553  0.70259753  0.94759899     0.01600
C1759       C  0.83072582  0.69092674  0.95059679    -0.23700
C1760       C  0.73922507  0.74119736  0.97657838    -0.28300
C1761       C  0.74104050  0.76507716  0.98240182     0.07300
C1762       C  0.76425181  0.77715731  0.97616018    -0.27000
H1763       H  0.74215925  0.69517427  0.96751228     0.12000
H1764       H  0.78205163  0.67328095  0.95665633     0.13100
H1765       H  0.81204055  0.79530340  0.96656489     0.12200
H1766       H  0.85196757  0.77341090  0.95586533     0.11400
H1767       H  0.87424069  0.73605706  0.94752355     0.16800
H1768       H  0.82996214  0.67219028  0.94818765     0.12700
H1769       H  0.72169475  0.73165369  0.98198359     0.15600
H1770       H  0.76604997  0.79535637  0.98120263     0.15400
C1771       C  0.16931105  0.69239493  0.96463852    -0.17500
C1772       C  0.19156527  0.70576966  0.97056545    -0.19700
C1773       C  0.19011910  0.73024856  0.97107783     0.21000
C1774       C  0.16611495  0.74133430  0.96508285    -0.02600
C1775       C  0.14354410  0.72782304  0.95948387    -0.05700
C1776       C  0.14506096  0.70320172  0.95934715     0.21200
C1777       C  0.11929659  0.73898830  0.95464418     0.19400
C1778       C  0.11780850  0.76341065  0.95509967    -0.17200
C1779       C  0.14006528  0.77673487  0.96069733    -0.19400
C1780       C  0.16424424  0.76590165  0.96599565     0.20900
C1781       C  0.18580436  0.77908964  0.97434168    -0.32400
C1782       C  0.20879564  0.76801424  0.98291947     0.01600
C1783       C  0.21147318  0.74371610  0.97953036    -0.23700
C1784       C  0.12234040  0.68994194  0.95388729    -0.28300
C1785       C  0.09822921  0.70110720  0.94857235     0.07300
C1786       C  0.09692425  0.72560714  0.94933587    -0.27000
H1787       H  0.17096868  0.67356346  0.96460979     0.12000
H1788       H  0.20978923  0.69692446  0.97528401     0.13100
H1789       H  0.09930006  0.77222837  0.95141487     0.12200
H1790       H  0.13818249  0.79553116  0.96151069     0.11400
H1791       H  0.18332512  0.79761982  0.97749739     0.16800
H1792       H  0.22884069  0.73497923  0.98674690     0.12700
H1793       H  0.12355484  0.67109702  0.95304467     0.15600
H1794       H  0.07840338  0.73428656  0.94523744     0.15400
C1795       C  0.04666306  0.70077755  0.79430052    -0.17500
C1796       C  0.04683153  0.68780099  0.81633922    -0.19700
C1797       C  0.03894798  0.69798625  0.83872136     0.21000
C1798       C  0.03148674  0.72171522  0.83891730    -0.02600
C1799       C  0.03208755  0.73500721  0.81677880    -0.05700
C1800       C  0.03906774  0.72434214  0.79424451     0.21200
C1801       C  0.02456984  0.75869529  0.81702715     0.19400
C1802       C  0.01673846  0.76894432  0.83936808    -0.17200
C1803       C  0.01606399  0.75579796  0.86122546    -0.19400
C1804       C  0.02331487  0.73215662  0.86120471     0.20900
C1805       C  0.02337500  0.71900354  0.88321474    -0.32400
C1806       C  0.03182912  0.69557543  0.88344342     0.01600
C1807       C  0.03916537  0.68509882  0.86099730    -0.23700
C1808       C  0.03602770  0.73681286  0.77190150    -0.28300
C1809       C  0.02571143  0.75966534  0.77189650     0.07300
C1810       C  0.02273499  0.77115557  0.79467361    -0.27000
H1811       H  0.05205354  0.69224801  0.77720497     0.12000
H1812       H  0.05278099  0.66966306  0.81580718     0.13100
H1813       H  0.01051724  0.78701782  0.83983943     0.12200
H1814       H  0.00974818  0.76412105  0.87815875     0.11400
H1815       H  0.01863841  0.72742993  0.90055954     0.16800
H1816       H  0.04662897  0.66737975  0.86116658     0.12700
H1817       H  0.03795671  0.72769415  0.75449039     0.15600
H1818       H  0.01431320  0.78855757  0.79482093     0.15400
loop_ 
_geom_bond_atom_site_label_1 
_geom_bond_atom_site_label_2 
_geom_bond_distance 
_geom_bond_site_symmetry_2 
_ccdc_geom_bond_type 
C1            C2   1.393       .  A
C1            C6   1.407       .  A
C1         C1785   1.491       .  S
C2            C3   1.396       .  A
C2            H7   1.086       .  S
C3            C4   1.420       .  A
C3         C1806   1.488       .  S
C4            C5   1.424       .  A
C4            H8   1.083       .  S
C5            C6   1.425       .  A
C5           C75   1.512       .  S
C6            H9   1.083       .  S
C10          C11   1.405       .  A
C10          C15   1.391       .  A
C10        C1758   1.485       .  S
C11          C12   1.422       .  A
C11          H16   1.084       .  S
C12          C13   1.424       .  A
C12         C104   1.510       .  S
C13          C14   1.421       .  A
C13          H17   1.083       .  S
C14          C15   1.396       .  A
C14        C1734   1.487       .  S
C15          H18   1.086       .  S
C19          C20   1.416       .  A
C19          C24   1.400       .  A
C19        C1689   1.488       .  S
C20          C21   1.420       .  A
C20          H25   1.083       .  S
C21          C22   1.425       .  A
C21          C95   1.508       .  S
C22          C23   1.410       .  A
C22          H26   1.083       .  S
C23          C24   1.395       .  A
C23        C1710   1.496       .  S
C24          H27   1.085       .  S
C28          C29   1.416       .  A
C28          C33   1.395       .  A
C28        C1638   1.481       .  S
C29          C30   1.420       .  A
C29          H34   1.083       .  S
C30          C31   1.426       .  A
C30          C84   1.507       .  S
C31          C32   1.408       .  A
C31          H35   1.083       .  S
C32          C33   1.390       .  A
C32        C1662   1.491       .  S
C33          H36   1.086       .  S
C37          C38   1.418       .  A
C37          C42   1.396       .  A
C37        C1590   1.484       .  S
C38          C39   1.421       .  A
C38          H43   1.083       .  S
C39          C40   1.421       .  A
C39         C101   1.509       .  S
C40          C41   1.407       .  A
C40          H44   1.083       .  S
C41          C42   1.392       .  A
C41        C1614   1.487       .  S
C42          H45   1.085       .  S
C46          C47   1.410       .  A
C46          C51   1.396       .  A
C46        C1542   1.492       .  S
C47          C48   1.423       .  A
C47          H52   1.083       .  S
C48          C49   1.421       .  A
C48          C98   1.507       .  S
C49          C50   1.415       .  A
C49          H53   1.083       .  S
C50          C51   1.398       .  A
C50        C1566   1.486       .  S
C51          H54   1.086       .  S
C55          C56   1.405       .  A
C55          C60   1.391       .  A
C55        C1494   1.487       .  S
C56          C57   1.424       .  A
C56          H61   1.084       .  S
C57          C58   1.420       .  A
C57          C81   1.507       .  S
C58          C59   1.418       .  A
C58          H62   1.083       .  S
C59          C60   1.399       .  A
C59        C1518   1.484       .  S
C60          H63   1.086       .  S
C64          C65   1.413       .  A
C64          C69   1.399       .  A
C64        C1449   1.481       .  S
C65          C66   1.417       .  A
C65          H70   1.083       .  S
C66          C67   1.426       .  A
C66          C78   1.507       .  S
C67          C68   1.411       .  A
C67          H71   1.083       .  S
C68          C69   1.395       .  A
C68        C1473   1.496       .  S
C69          H72   1.085       .  S
O73         Zr85   2.443   1_556  S
O73          C75   1.289       .  A
O74        Zr111   2.497   1_455  S
O74          C75   1.300       .  A
O76         Zr88   2.433       .  S
O76          C78   1.287       .  A
O77        Zr112   2.495   1_455  S
O77          C78   1.301       .  A
O79         Zr88   2.428   1_556  S
O79          C81   1.287       .  A
O80        Zr111   2.499   1_455  S
O80          C81   1.301       .  A
O82         Zr85   2.427       .  S
O82          C84   1.286       .  A
O83        Zr112   2.499   1_455  S
O83          C84   1.301       .  A
Zr85         O86   2.435       .  S
Zr85         O87   2.436       .  S
Zr85         O91   2.369       .  S
Zr85         O92   2.372       .  S
Zr85        O115   2.373   1_455  S
Zr85        O117   2.366   1_455  S
O86         H129   0.990       .  S
O87         H128   0.990       .  S
O87         H132   0.990       .  S
Zr88         O89   2.436       .  S
Zr88         O90   2.434       .  S
Zr88         O92   2.370       .  S
Zr88         O91   2.370       .  S
Zr88        O116   2.375   1_455  S
Zr88        O118   2.372   1_455  S
O89         H130   0.990       .  S
O89         H133   0.990       .  S
O90         H123   0.990       .  S
O91        Zr111   2.402   1_454  S
O92        Zr112   2.404   1_455  S
O92         H119   0.965       .  S
O93        Zr105   2.445       .  S
O93          C95   1.290       .  A
O94        Zr112   2.488       .  S
O94          C95   1.299       .  A
O96        Zr108   2.456   1_556  S
O96          C98   1.292       .  A
O97        Zr111   2.480       .  S
O97          C98   1.298       .  A
O99        Zr108   2.447       .  S
O99         C101   1.290       .  A
O100       Zr112   2.491       .  S
O100        C101   1.300       .  A
O102       Zr105   2.445   1_556  S
O102        C104   1.290       .  A
O103       Zr111   2.489       .  S
O103        C104   1.299       .  A
Zr105       O106   2.435       .  S
Zr105       O107   2.434       .  S
Zr105       O113   2.368       .  S
Zr105       O114   2.372       .  S
Zr105       O117   2.377       .  S
Zr105       O115   2.371       .  S
O106        H126   0.990       .  S
O106        H131   0.990       .  S
O107        H127   0.990       .  S
Zr108       O109   2.437       .  S
Zr108       O110   2.436       .  S
Zr108       O114   2.376       .  S
Zr108       O113   2.375       .  S
Zr108       O118   2.376       .  S
Zr108       O116   2.371       .  S
O109        H125   0.990       .  S
O110        H124   0.990       .  S
O110        H134   0.990       .  S
Zr111       O114   2.411   1_556  S
Zr111       O116   2.408   1_556  S
Zr111       O117   2.407   1_556  S
Zr112       O113   2.408       .  S
Zr112       O115   2.400       .  S
Zr112       O118   2.401       .  S
O113        H121   0.966       .  S
O116        H120   0.966   1_554  S
O117        H122   0.965   1_554  S
C135        C136   1.401       .  A
C135        C140   1.389   1_545  A
C135       C1401   1.478       .  S
C136        C137   1.417       .  A
C136        H141   1.084       .  S
C137        C138   1.425   1_545  A
C137        C209   1.507       .  S
C138        C139   1.421       .  A
C138        H142   1.083       .  S
C139        C140   1.398       .  A
C139       C1425   1.489       .  S
C140        H143   1.086       .  S
C144        C145   1.403       .  A
C144        C149   1.397   1_545  A
C144       C1377   1.487       .  S
C145        C146   1.416       .  A
C145        H150   1.084       .  S
C146        C147   1.416       .  A
C146        C238   1.497       .  S
C147        C148   1.414   1_545  A
C147        H151   1.083   1_545  S
C148        C149   1.402       .  A
C148       C1350   1.484       .  S
C149        H152   1.085       .  S
C153        C154   1.412       .  A
C153        C158   1.396       .  A
C153       C1302   1.475       .  S
C154        C155   1.416       .  A
C154        H159   1.083       .  S
C155        C156   1.419       .  A
C155        C229   1.498       .  S
C156        C157   1.404       .  A
C156        H160   1.084       .  S
C157        C158   1.388       .  A
C157       C1326   1.476       .  S
C158        H161   1.086       .  S
C162        C163   1.399       .  A
C162        C167   1.416       .  A
C162       C1254   1.482       .  S
C163        C164   1.394       .  A
C163        H168   1.085       .  S
C164        C165   1.407       .  A
C164       C1278   1.488       .  S
C165        C166   1.418       .  A
C165        H169   1.084       .  S
C166        C167   1.419       .  A
C166        C218   1.503       .  S
C167        H170   1.083       .  S
C171        C172   1.419       .  A
C171        C176   1.396       .  A
C171       C1206   1.485       .  S
C172        C173   1.423       .  A
C172        H177   1.083       .  S
C173        C174   1.417       .  A
C173        C235   1.504       .  S
C174        C175   1.403       .  A
C174        H178   1.084       .  S
C175        C176   1.389       .  A
C175       C1230   1.481       .  S
C176        H179   1.086       .  S
C180        C181   1.406       .  A
C180        C185   1.394   1_545  A
C180       C1158   1.483       .  S
C181        C182   1.418       .  A
C181        H186   1.084       .  S
C182        C183   1.419       .  A
C182        C232   1.500       .  S
C183        C184   1.414   1_545  A
C183        H187   1.083   1_545  S
C184        C185   1.395       .  A
C184       C1182   1.481       .  S
C185        H188   1.085       .  S
C189        C190   1.405       .  A
C189        C194   1.393   1_545  A
C189       C1110   1.485       .  S
C190        C191   1.419       .  A
C190        H195   1.084       .  S
C191        C192   1.421       .  A
C191        C215   1.502       .  S
C192        C193   1.416   1_545  A
C192        H196   1.083   1_545  S
C193        C194   1.398       .  A
C193       C1134   1.484       .  S
C194        H197   1.085       .  S
C198        C199   1.397       .  A
C198        C203   1.412       .  A
C198       C1089   1.475       .  S
C199        C200   1.391       .  A
C199        H204   1.086       .  S
C200        C201   1.404       .  A
C200       C1065   1.482       .  S
C201        C202   1.418       .  A
C201        H205   1.084       .  S
C202        C203   1.416       .  A
C202        C212   1.495       .  S
C203        H206   1.083       .  S
O207       Zr219   2.457       .  S
O207        C209   1.293       .  A
O208       Zr245   2.468       .  S
O208        C209   1.294       .  A
O210       Zr222   2.439       .  S
O210        C212   1.288       .  A
O211       Zr246   2.465       .  S
O211        C212   1.294       .  A
O213       Zr222   2.444       .  S
O213        C215   1.290       .  A
O214       Zr245   2.472       .  S
O214        C215   1.295       .  A
O216       Zr219   2.451       .  S
O216        C218   1.291       .  A
O217       Zr246   2.473       .  S
O217        C218   1.296       .  A
Zr219       O220   2.434       .  S
Zr219       O221   2.436       .  S
Zr219       O225   2.371       .  S
Zr219       O226   2.374       .  S
Zr219       O249   2.377       .  S
Zr219       O251   2.374       .  S
O220        H263   0.990       .  S
O221        H262   0.990       .  S
O221        H266   0.990       .  S
Zr222       O223   2.436       .  S
Zr222       O224   2.435       .  S
Zr222       O226   2.372       .  S
Zr222       O225   2.369       .  S
Zr222       O250   2.373       .  S
Zr222       O252   2.371       .  S
O223        H264   0.990       .  S
O223        H267   0.990       .  S
O224        H257   0.990       .  S
O225       Zr245   2.399       .  S
O226       Zr246   2.401       .  S
O226        H253   0.966       .  S
O227       Zr239   2.438       .  S
O227        C229   1.289       .  A
O228       Zr246   2.472   1_556  S
O228        C229   1.296       .  A
O230       Zr242   2.451       .  S
O230        C232   1.291       .  A
O231       Zr245   2.464   1_556  S
O231        C232   1.294       .  A
O233       Zr242   2.452       .  S
O233        C235   1.292       .  A
O234       Zr246   2.469   1_556  S
O234        C235   1.295       .  A
O236       Zr239   2.438       .  S
O236        C238   1.289       .  A
O237       Zr245   2.472   1_556  S
O237        C238   1.295       .  A
Zr239       O240   2.439       .  S
Zr239       O241   2.434       .  S
Zr239       O247   2.371       .  S
Zr239       O248   2.370       .  S
Zr239       O251   2.376   1_556  S
Zr239       O249   2.374   1_556  S
O240        H260   0.990       .  S
O240        H265   0.990       .  S
O241        H261   0.990   1_556  S
Zr242       O243   2.435       .  S
Zr242       O244   2.435       .  S
Zr242       O248   2.372       .  S
Zr242       O247   2.370       .  S
Zr242       O252   2.370   1_556  S
Zr242       O250   2.373   1_556  S
O243        H259   0.990       .  S
O244        H258   0.990       .  S
O244        H268   0.990       .  S
Zr245       O248   2.399   1_554  S
Zr245       O250   2.400       .  S
Zr245       O251   2.403       .  S
Zr246       O247   2.398   1_554  S
Zr246       O249   2.400       .  S
Zr246       O252   2.396       .  S
O247        H255   0.966       .  S
O250        H254   0.966       .  S
O251        H256   0.966       .  S
C269        C270   1.408       .  A
C269        C274   1.398   1_545  A
C269       C1014   1.498       .  S
C270        C271   1.423       .  A
C270        H275   1.083       .  S
C271        C272   1.422       .  A
C271        C349   1.507       .  S
C272        C273   1.417   1_545  A
C272        H276   1.083   1_545  S
C273        C274   1.395       .  A
C273       C1041   1.488       .  S
C274        H277   1.084       .  S
C278        C279   1.406       .  A
C278        C283   1.392   1_545  A
C278        C990   1.485       .  S
C279        C280   1.422       .  A
C279        H284   1.083       .  S
C280        C281   1.425       .  A
C280        C366   1.513       .  S
C281        C282   1.421   1_545  A
C281        H285   1.083   1_545  S
C282        C283   1.396       .  A
C282        C966   1.490       .  S
C283        H286   1.086       .  S
C287        C288   1.394       .  A
C287        C292   1.417       .  A
C287        C918   1.481       .  S
C288        C289   1.391       .  A
C288        H293   1.086       .  S
C289        C290   1.403       .  A
C289        C942   1.480       .  S
C290        C291   1.415       .  A
C290        H294   1.084       .  S
C291        C292   1.422       .  A
C291        C369   1.501       .  S
C292        H295   1.083       .  S
C296        C297   1.397       .  A
C296        C301   1.418       .  A
C296        C870   1.484       .  S
C297        C298   1.387       .  A
C297        H302   1.086       .  S
C298        C299   1.406       .  A
C298        C897   1.482       .  S
C299        C300   1.424       .  A
C299        H303   1.083       .  S
C300        C301   1.423       .  A
C300        C346   1.510       .  S
C301        H304   1.083       .  S
C305        C306   1.398       .  A
C305        C310   1.417       .  A
C305        C822   1.487       .  S
C306        C307   1.396       .  A
C306        H311   1.085       .  S
C307        C308   1.408       .  A
C307        C846   1.492       .  S
C308        C309   1.424       .  A
C308        H312   1.084       .  S
C309        C310   1.420       .  A
C309        C363   1.508       .  S
C310        H313   1.083       .  S
C314        C315   1.401       .  A
C314        C319   1.389   1_545  A
C314        C774   1.479       .  S
C315        C316   1.418       .  A
C315        H320   1.084       .  S
C316        C317   1.425       .  A
C316        C372   1.505       .  S
C317        C318   1.420   1_545  A
C317        H321   1.083   1_545  S
C318        C319   1.396       .  A
C318        C801   1.488       .  S
C319        H322   1.086       .  S
C323        C324   1.392   1_545  A
C323        C328   1.411       .  A
C323        C729   1.493       .  S
C324        C325   1.396       .  A
C324        H329   1.086       .  S
C325        C326   1.420   1_565  A
C325        C750   1.489       .  S
C326        C327   1.424       .  A
C326        H330   1.083   1_545  S
C327        C328   1.427       .  A
C327        C343   1.516       .  S
C328        H331   1.083       .  S
C332        C333   1.399       .  A
C332        C337   1.413       .  A
C332        C681   1.482       .  S
C333        C334   1.392       .  A
C333        H338   1.086       .  S
C334        C335   1.408       .  A
C334        C702   1.491       .  S
C335        C336   1.425       .  A
C335        H339   1.083       .  S
C336        C337   1.418       .  A
C336        C352   1.504       .  S
C337        H340   1.083       .  S
O341       Zr353   2.445       .  S
O341        C343   1.290       .  A
O342       Zr379   2.505   1_455  S
O342        C343   1.302       .  A
O344       Zr356   2.444       .  S
O344        C346   1.290       .  A
O345       Zr380   2.487   1_455  S
O345        C346   1.299       .  A
O347       Zr356   2.443       .  S
O347        C349   1.290       .  A
O348       Zr379   2.482   1_455  S
O348        C349   1.298       .  A
O350       Zr353   2.431       .  S
O350        C352   1.287       .  A
O351       Zr380   2.487   1_455  S
O351        C352   1.299       .  A
Zr353       O354   2.434       .  S
Zr353       O355   2.436       .  S
Zr353       O359   2.371       .  S
Zr353       O360   2.372       .  S
Zr353       O383   2.374   1_455  S
Zr353       O385   2.369   1_455  S
O354        H397   0.990       .  S
O355        H396   0.990       .  S
O355        H400   0.990       .  S
Zr356       O357   2.435       .  S
Zr356       O358   2.436       .  S
Zr356       O360   2.376       .  S
Zr356       O359   2.375       .  S
Zr356       O384   2.371   1_455  S
Zr356       O386   2.367   1_455  S
O357        H398   0.990       .  S
O357        H401   0.990       .  S
O358        H391   0.990       .  S
O359       Zr379   2.400   1_455  S
O360       Zr380   2.401   1_455  S
O360        H387   0.966       .  S
O361       Zr373   2.441       .  S
O361        C363   1.289       .  A
O362       Zr380   2.490       .  S
O362        C363   1.299       .  A
O364       Zr376   2.453       .  S
O364        C366   1.292       .  A
O365       Zr379   2.494       .  S
O365        C366   1.300       .  A
O367       Zr376   2.461       .  S
O367        C369   1.293       .  A
O368       Zr380   2.461       .  S
O368        C369   1.293       .  A
O370       Zr373   2.450       .  S
O370        C372   1.292       .  A
O371       Zr379   2.476       .  S
O371        C372   1.296       .  A
Zr373       O374   2.438       .  S
Zr373       O375   2.433       .  S
Zr373       O381   2.370       .  S
Zr373       O382   2.366       .  S
Zr373       O385   2.375       .  S
Zr373       O383   2.377       .  S
O374        H394   0.990       .  S
O374        H399   0.990       .  S
O375        H395   0.990       .  S
Zr376       O377   2.435       .  S
Zr376       O378   2.436       .  S
Zr376       O382   2.377       .  S
Zr376       O381   2.371       .  S
Zr376       O386   2.370       .  S
Zr376       O384   2.377       .  S
O377        H393   0.990       .  S
O378        H392   0.990       .  S
O378        H402   0.990       .  S
Zr379       O382   2.408       .  S
Zr379       O384   2.409       .  S
Zr379       O385   2.403       .  S
Zr380       O381   2.409       .  S
Zr380       O383   2.396       .  S
Zr380       O386   2.401       .  S
O381        H389   0.965       .  S
O384        H388   0.966       .  S
O385        H390   0.966       .  S
C403        C404   1.394   1_455  A
C403        C408   1.418       .  A
C403       C1446   1.486       .  S
C404        C405   1.395       .  A
C404        H423   1.087       .  S
C405        C406   1.419       .  A
C405       C1593   1.486       .  S
C406        C407   1.422       .  A
C406        C413   1.407       .  A
C407        C408   1.425   1_655  A
C407        C412   1.420       .  A
C408        C409   1.405       .  A
C409        C410   1.402       .  A
C409        H419   1.083       .  S
C410        C411   1.407       .  A
C410        H420   1.083       .  S
C411        C412   1.423   1_455  A
C411        C418   1.414       .  A
C412        C415   1.429       .  A
C413        C414   1.405       .  A
C413        H421   1.083       .  S
C414        C415   1.405       .  A
C414        H422   1.083       .  S
C415        C416   1.421       .  A
C416        C417   1.388       .  A
C416        C825   1.492       .  S
C417        C418   1.394   1_655  A
C417        H424   1.088       .  S
C418        C678   1.478       .  S
C425        C426   1.393       .  A
C425        C430   1.418       .  A
C425       C1062   1.484       .  S
C426        C427   1.391       .  A
C426        H445   1.087       .  S
C427        C428   1.415       .  A
C427       C1113   1.484       .  S
C428        C429   1.426       .  A
C428        C435   1.405       .  A
C429        C430   1.426       .  A
C429        C434   1.422       .  A
C430        C431   1.406       .  A
C431        C432   1.401       .  A
C431        H441   1.083       .  S
C432        C433   1.405       .  A
C432        H442   1.083       .  S
C433        C434   1.428       .  A
C433        C440   1.418       .  A
C434        C437   1.427       .  A
C435        C436   1.398       .  A
C435        H443   1.083       .  S
C436        C437   1.405       .  A
C436        H444   1.083       .  S
C437        C438   1.414       .  A
C438        C439   1.391       .  A
C438        C726   1.482       .  S
C439        C440   1.392       .  A
C439        H446   1.087       .  S
C440        C705   1.487       .  S
C447        C448   1.390       .  A
C447        C452   1.414   1_554  A
C447       C1497   1.478   1_554  S
C448        C449   1.390       .  A
C448        H467   1.088       .  S
C449        C450   1.420       .  A
C449       C1470   1.489       .  S
C450        C451   1.430       .  A
C450        C457   1.406       .  A
C451        C452   1.425   1_554  A
C451        C456   1.420       .  A
C452        C453   1.407       .  A
C453        C454   1.401       .  A
C453        H463   1.083       .  S
C454        C455   1.404       .  A
C454        H464   1.083       .  S
C455        C456   1.426   1_556  A
C455        C462   1.418       .  A
C456        C459   1.421       .  A
C457        C458   1.402       .  A
C457        H465   1.083       .  S
C458        C459   1.405       .  A
C458        H466   1.083       .  S
C459        C460   1.414       .  A
C460        C461   1.393       .  A
C460       C1086   1.481       .  S
C461        C462   1.393   1_554  A
C461        H468   1.087       .  S
C462       C1209   1.488       .  S
C469        C470   1.392       .  A
C469        C474   1.417       .  A
C469       C1281   1.486       .  S
C470        C471   1.391       .  A
C470        H489   1.087       .  S
C471        C472   1.413       .  A
C471       C1398   1.480       .  S
C472        C473   1.426       .  A
C472        C479   1.405       .  A
C473        C474   1.427       .  A
C473        C478   1.421       .  A
C474        C475   1.405       .  A
C475        C476   1.400       .  A
C475        H485   1.083       .  S
C476        C477   1.406       .  A
C476        H486   1.083       .  S
C477        C478   1.427       .  A
C477        C484   1.418       .  A
C478        C481   1.426       .  A
C479        C480   1.397       .  A
C479        H487   1.083       .  S
C480        C481   1.405       .  A
C480        H488   1.083       .  S
C481        C482   1.413       .  A
C482        C483   1.391       .  A
C482        C777   1.482       .  S
C483        C484   1.393       .  A
C483        H490   1.087       .  S
C484        C849   1.486       .  S
C491        C492   1.393       .  A
C491        C496   1.427       .  A
C491       C1686   1.495       .  S
C492        C493   1.393   1_655  A
C492        H511   1.087       .  S
C493        C494   1.415       .  A
C493       C1641   1.485       .  S
C494        C495   1.423   1_455  A
C494        C501   1.405       .  A
C495        C496   1.428       .  A
C495        C500   1.423       .  A
C496        C497   1.407       .  A
C497        C498   1.409       .  A
C497        H507   1.083       .  S
C498        C499   1.408       .  A
C498        H508   1.083       .  S
C499        C500   1.428       .  A
C499        C506   1.423       .  A
C500        C503   1.429       .  A
C501        C502   1.401       .  A
C501        H509   1.083       .  S
C502        C503   1.405   1_455  A
C502        H510   1.083       .  S
C503        C504   1.417       .  A
C504        C505   1.388       .  A
C504        C753   1.487   1_655  S
C505        C506   1.392       .  A
C505        H512   1.089       .  S
C506        C798   1.488       .  S
C513        C514   1.394       .  A
C513        C518   1.418       .  A
C513       C1161   1.486       .  S
C514        C515   1.394       .  A
C514        H533   1.087       .  S
C515        C516   1.415       .  A
C515       C1233   1.486       .  S
C516        C517   1.426       .  A
C516        C523   1.405       .  A
C517        C518   1.426       .  A
C517        C522   1.423       .  A
C518        C519   1.406       .  A
C519        C520   1.402       .  A
C519        H529   1.083       .  S
C520        C521   1.407       .  A
C520        H530   1.082       .  S
C521        C522   1.428       .  A
C521        C528   1.422       .  A
C522        C525   1.427       .  A
C523        C524   1.396       .  A
C523        H531   1.082       .  S
C524        C525   1.403       .  A
C524        H532   1.083       .  S
C525        C526   1.413       .  A
C526        C527   1.390       .  A
C526        C894   1.484       .  S
C527        C528   1.394       .  A
C527        H534   1.087       .  S
C528       C1017   1.490       .  S
C535        C536   1.392   1_455  A
C535        C540   1.418       .  A
C535       C1521   1.484       .  S
C536        C537   1.389       .  A
C536        H555   1.088       .  S
C537        C538   1.416       .  A
C537       C1569   1.485       .  S
C538        C539   1.427       .  A
C538        C545   1.404       .  A
C539        C540   1.425   1_655  A
C539        C544   1.420       .  A
C540        C541   1.406       .  A
C541        C542   1.405       .  A
C541        H551   1.083       .  S
C542        C543   1.407       .  A
C542        H552   1.083       .  S
C543        C544   1.427   1_455  A
C543        C550   1.420       .  A
C544        C547   1.424       .  A
C545        C546   1.401       .  A
C545        H553   1.083       .  S
C546        C547   1.406       .  A
C546        H554   1.083       .  S
C547        C548   1.413       .  A
C548        C549   1.391       .  A
C548        C921   1.481       .  S
C549        C550   1.393   1_655  A
C549        H556   1.088       .  S
C550        C873   1.486       .  S
C557        C558   1.391       .  A
C557        C562   1.420       .  A
C557       C1782   1.488   1_554  S
C558        C559   1.391       .  A
C558        H577   1.088       .  S
C559        C560   1.421       .  A
C559       C1665   1.489       .  S
C560        C561   1.429       .  A
C560        C567   1.407       .  A
C561        C562   1.429       .  A
C561        C566   1.425       .  A
C562        C563   1.406   1_554  A
C563        C564   1.402       .  A
C563        H573   1.083       .  S
C564        C565   1.404   1_556  A
C564        H574   1.083       .  S
C565        C566   1.427       .  A
C565        C572   1.417       .  A
C566        C569   1.428       .  A
C567        C568   1.404       .  A
C567        H575   1.083       .  S
C568        C569   1.405       .  A
C568        H576   1.083       .  S
C569        C570   1.421       .  A
C570        C571   1.392       .  A
C570       C1137   1.488       .  S
C571        C572   1.389       .  A
C571        H578   1.088       .  S
C572       C1185   1.486   1_554  S
C579        C580   1.391       .  A
C579        C584   1.410       .  A
C579       C1617   1.479       .  S
C580        C581   1.392   1_554  A
C580        H599   1.087       .  S
C581        C582   1.419       .  A
C581       C1545   1.486       .  S
C582        C583   1.428   1_556  A
C582        C589   1.406       .  A
C583        C584   1.425       .  A
C583        C588   1.420       .  A
C584        C585   1.405       .  A
C585        C586   1.396       .  A
C585        H595   1.083       .  S
C586        C587   1.403       .  A
C586        H596   1.083       .  S
C587        C588   1.424       .  A
C587        C594   1.411       .  A
C588        C591   1.423   1_554  A
C589        C590   1.403       .  A
C589        H597   1.083       .  S
C590        C591   1.406       .  A
C590        H598   1.083       .  S
C591        C592   1.418       .  A
C592        C593   1.394   1_556  A
C592       C1305   1.484       .  S
C593        C594   1.393       .  A
C593        H600   1.087       .  S
C594       C1257   1.480       .  S
C601        C602   1.392       .  A
C601        C606   1.421       .  A
C601       C1737   1.491       .  S
C602        C603   1.394   1_655  A
C602        H621   1.088       .  S
C603        C604   1.419       .  A
C603       C1809   1.485       .  S
C604        C605   1.424   1_455  A
C604        C611   1.407       .  A
C605        C606   1.427       .  A
C605        C610   1.422       .  A
C606        C607   1.406       .  A
C607        C608   1.406       .  A
C607        H617   1.083       .  S
C608        C609   1.407       .  A
C608        H618   1.083       .  S
C609        C610   1.424       .  A
C609        C616   1.421       .  A
C610        C613   1.426   1_655  A
C611        C612   1.405       .  A
C611        H619   1.083       .  S
C612        C613   1.406       .  A
C612        H620   1.083       .  S
C613        C614   1.421       .  A
C614        C615   1.393   1_455  A
C614       C1038   1.490       .  S
C615        C616   1.394       .  A
C615        H622   1.088       .  S
C616        C969   1.487       .  S
C623        C624   1.390       .  A
C623        C628   1.410       .  A
C623       C1329   1.478       .  S
C624        C625   1.394       .  A
C624        H643   1.087       .  S
C625        C626   1.419       .  A
C625       C1374   1.485       .  S
C626        C627   1.426       .  A
C626        C633   1.407       .  A
C627        C628   1.424       .  A
C627        C632   1.420       .  A
C628        C629   1.403       .  A
C629        C630   1.395       .  A
C629        H639   1.083       .  S
C630        C631   1.404       .  A
C630        H640   1.083       .  S
C631        C632   1.426       .  A
C631        C638   1.412       .  A
C632        C635   1.426       .  A
C633        C634   1.401       .  A
C633        H641   1.083       .  S
C634        C635   1.405       .  A
C634        H642   1.083       .  S
C635        C636   1.416       .  A
C636        C637   1.392       .  A
C636        C993   1.483       .  S
C637        C638   1.391       .  A
C637        H644   1.087       .  S
C638        C945   1.481       .  S
C645        C646   1.392       .  A
C645        C650   1.421       .  A
C645       C1761   1.488   1_554  S
C646        C647   1.391       .  A
C646        H665   1.088       .  S
C647        C648   1.420       .  A
C647       C1713   1.488       .  S
C648        C649   1.428       .  A
C648        C655   1.407       .  A
C649        C650   1.429       .  A
C649        C654   1.426       .  A
C650        C651   1.406   1_554  A
C651        C652   1.403       .  A
C651        H661   1.083       .  S
C652        C653   1.406   1_556  A
C652        H662   1.083       .  S
C653        C654   1.425       .  A
C653        C660   1.420       .  A
C654        C657   1.427       .  A
C655        C656   1.403       .  A
C655        H663   1.083       .  S
C656        C657   1.405       .  A
C656        H664   1.083       .  S
C657        C658   1.422       .  A
C658        C659   1.393       .  A
C658       C1422   1.491       .  S
C659        C660   1.393       .  A
C659        H666   1.087       .  S
C660       C1353   1.489   1_554  S
C667        C668   1.398       .  A
C667        C672   1.404       .  A
C667        H683   1.084       .  S
C668        C669   1.403       .  A
C668        H684   1.084       .  S
C669        C679   1.403       .  A
C669        C670   1.412       .  A
C670        C676   1.411       .  A
C670        C671   1.413       .  A
C671        C673   1.413       .  A
C671        C672   1.410       .  A
C672        C680   1.401       .  A
C673        C682   1.409       .  A
C673        C674   1.404       .  A
C674        C675   1.402       .  A
C674        H685   1.083       .  S
C675        C676   1.405       .  A
C675        H686   1.083       .  S
C676        C677   1.408       .  A
C677        C678   1.411       .  A
C677        H687   1.084       .  S
C678        C679   1.406       .  A
C679        H688   1.085       .  S
C680        C681   1.408       .  A
C680        H689   1.085       .  S
C681        C682   1.405       .  A
C682        H690   1.084       .  S
C691        C692   1.401       .  A
C691        C696   1.405       .  A
C691        H707   1.084       .  S
C692        C693   1.404       .  A
C692        H708   1.083       .  S
C693        C703   1.412       .  A
C693        C694   1.415       .  A
C694        C700   1.409       .  A
C694        C695   1.417       .  A
C695        C697   1.414       .  A
C695        C696   1.409       .  A
C696        C704   1.404       .  A
C697        C706   1.411       .  A
C697        C698   1.404       .  A
C698        C699   1.401       .  A
C698        H709   1.083       .  S
C699        C700   1.405       .  A
C699        H710   1.084       .  S
C700        C701   1.404       .  A
C701        C702   1.410       .  A
C701        H711   1.085       .  S
C702        C703   1.407       .  A
C703        H712   1.084       .  S
C704        C705   1.409       .  A
C704        H713   1.085       .  S
C705        C706   1.408       .  A
C706        H714   1.084       .  S
C715        C716   1.400       .  A
C715        C720   1.405       .  A
C715        H731   1.083       .  S
C716        C717   1.403       .  A
C716        H732   1.084       .  S
C717        C727   1.406       .  A
C717        C718   1.413       .  A
C718        C724   1.410       .  A
C718        C719   1.416       .  A
C719        C721   1.414       .  A
C719        C720   1.409       .  A
C720        C728   1.404       .  A
C721        C730   1.412       .  A
C721        C722   1.404       .  A
C722        C723   1.402       .  A
C722        H733   1.083       .  S
C723        C724   1.405       .  A
C723        H734   1.084       .  S
C724        C725   1.406       .  A
C725        C726   1.409       .  A
C725        H735   1.085       .  S
C726        C727   1.404       .  A
C727        H736   1.085       .  S
C728        C729   1.411       .  A
C728        H737   1.085       .  S
C729        C730   1.407       .  A
C730        H738   1.084       .  S
C739        C740   1.400       .  A
C739        C744   1.404       .  A
C739        H755   1.084       .  S
C740        C741   1.404       .  A
C740        H756   1.084       .  S
C741        C751   1.404       .  A
C741        C742   1.410       .  A
C742        C748   1.414       .  A
C742        C743   1.418       .  A
C743        C745   1.410       .  A
C743        C744   1.412       .  A
C744        C752   1.408       .  A
C745        C754   1.410       .  A
C745        C746   1.405       .  A
C746        C747   1.403       .  A
C746        H757   1.083       .  S
C747        C748   1.405       .  A
C747        H758   1.083       .  S
C748        C749   1.413       .  A
C749        C750   1.408       .  A
C749        H759   1.084       .  S
C750        C751   1.409       .  A
C751        H760   1.085       .  S
C752        C753   1.409       .  A
C752        H761   1.085       .  S
C753        C754   1.411       .  A
C754        H762   1.084       .  S
C763        C764   1.400       .  A
C763        C768   1.404       .  A
C763        H779   1.084       .  S
C764        C765   1.404       .  A
C764        H780   1.084       .  S
C765        C775   1.402       .  A
C765        C766   1.410       .  A
C766        C772   1.414       .  A
C766        C767   1.413       .  A
C767        C769   1.410       .  A
C767        C768   1.413       .  A
C768        C776   1.406       .  A
C769        C778   1.402       .  A
C769        C770   1.404       .  A
C770        C771   1.399       .  A
C770        H781   1.084       .  S
C771        C772   1.403       .  A
C771        H782   1.083       .  S
C772        C773   1.406       .  A
C773        C774   1.403       .  A
C773        H783   1.084       .  S
C774        C775   1.407       .  A
C775        H784   1.085       .  S
C776        C777   1.406       .  A
C776        H785   1.085       .  S
C777        C778   1.407       .  A
C778        H786   1.085       .  S
C787        C788   1.400       .  A
C787        C792   1.404       .  A
C787        H803   1.084       .  S
C788        C789   1.404       .  A
C788        H804   1.083       .  S
C789        C799   1.407       .  A
C789        C790   1.411       .  A
C790        C796   1.410       .  A
C790        C791   1.418       .  A
C791        C793   1.413       .  A
C791        C792   1.410       .  A
C792        C800   1.405       .  A
C793        C802   1.413       .  A
C793        C794   1.405       .  A
C794        C795   1.404       .  A
C794        H805   1.083       .  S
C795        C796   1.406       .  A
C795        H806   1.083       .  S
C796        C797   1.413       .  A
C797        C798   1.414       .  A
C797        H807   1.084       .  S
C798        C799   1.409       .  A
C799        H808   1.085       .  S
C800        C801   1.410       .  A
C800        H809   1.085       .  S
C801        C802   1.408       .  A
C802        H810   1.084       .  S
C811        C812   1.404       .  A
C811        C816   1.406       .  A
C811        H827   1.083       .  S
C812        C813   1.405       .  A
C812        H828   1.083       .  S
C813        C823   1.413       .  A
C813        C814   1.413       .  A
C814        C820   1.411       .  A
C814        C815   1.419       .  A
C815        C817   1.411       .  A
C815        C816   1.411       .  A
C816        C824   1.412       .  A
C817        C826   1.409       .  A
C817        C818   1.405       .  A
C818        C819   1.401       .  A
C818        H829   1.083       .  S
C819        C820   1.404       .  A
C819        H830   1.084       .  S
C820        C821   1.406       .  A
C821        C822   1.408       .  A
C821        H831   1.085       .  S
C822        C823   1.407       .  A
C823        H832   1.084       .  S
C824        C825   1.411       .  A
C824        H833   1.084       .  S
C825        C826   1.412       .  A
C826        H834   1.085       .  S
C835        C836   1.402       .  A
C835        C840   1.405       .  A
C835        H851   1.084       .  S
C836        C837   1.405       .  A
C836        H852   1.083       .  S
C837        C847   1.412       .  A
C837        C838   1.414       .  A
C838        C844   1.409       .  A
C838        C839   1.416       .  A
C839        C841   1.414       .  A
C839        C840   1.410       .  A
C840        C848   1.406       .  A
C841        C850   1.406       .  A
C841        C842   1.402       .  A
C842        C843   1.399       .  A
C842        H853   1.084       .  S
C843        C844   1.404       .  A
C843        H854   1.083       .  S
C844        C845   1.403       .  A
C845        C846   1.409       .  A
C845        H855   1.084       .  S
C846        C847   1.408       .  A
C847        H856   1.084       .  S
C848        C849   1.412       .  A
C848        H857   1.085       .  S
C849        C850   1.404       .  A
C850        H858   1.085       .  S
C859        C860   1.399       .  A
C859        C864   1.404       .  A
C859        H875   1.083       .  S
C860        C861   1.403       .  A
C860        H876   1.084       .  S
C861        C871   1.401       .  A
C861        C862   1.409       .  A
C862        C868   1.414       .  A
C862        C863   1.416       .  A
C863        C865   1.410       .  A
C863        C864   1.412       .  A
C864        C872   1.406       .  A
C865        C874   1.410       .  A
C865        C866   1.406       .  A
C866        C867   1.404       .  A
C866        H877   1.083       .  S
C867        C868   1.405       .  A
C867        H878   1.083       .  S
C868        C869   1.413       .  A
C869        C870   1.407       .  A
C869        H879   1.084       .  S
C870        C871   1.408       .  A
C871        H880   1.085       .  S
C872        C873   1.408       .  A
C872        H881   1.085       .  S
C873        C874   1.412       .  A
C874        H882   1.084       .  S
C883        C884   1.401       .  A
C883        C888   1.404       .  A
C883        H899   1.083       .  S
C884        C885   1.404       .  A
C884        H900   1.083       .  S
C885        C895   1.406       .  A
C885        C886   1.411       .  A
C886        C892   1.412       .  A
C886        C887   1.416       .  A
C887        C889   1.411       .  A
C887        C888   1.413       .  A
C888        C896   1.409       .  A
C889        C898   1.406       .  A
C889        C890   1.404       .  A
C890        C891   1.401       .  A
C890        H901   1.083       .  S
C891        C892   1.404       .  A
C891        H902   1.084       .  S
C892        C893   1.407       .  A
C893        C894   1.407       .  A
C893        H903   1.085       .  S
C894        C895   1.408       .  A
C895        H904   1.085       .  S
C896        C897   1.405       .  A
C896        H905   1.084       .  S
C897        C898   1.407       .  A
C898        H906   1.085       .  S
C907        C908   1.402       .  A
C907        C912   1.404       .  A
C907        H923   1.083       .  S
C908        C909   1.405       .  A
C908        H924   1.083       .  S
C909        C919   1.409       .  A
C909        C910   1.412       .  A
C910        C916   1.411       .  A
C910        C911   1.415       .  A
C911        C913   1.411       .  A
C911        C912   1.412       .  A
C912        C920   1.408       .  A
C913        C922   1.403       .  A
C913        C914   1.403       .  A
C914        C915   1.399       .  A
C914        H925   1.084       .  S
C915        C916   1.404       .  A
C915        H926   1.083       .  S
C916        C917   1.404       .  A
C917        C918   1.408       .  A
C917        H927   1.085       .  S
C918        C919   1.406       .  A
C919        H928   1.084       .  S
C920        C921   1.409       .  A
C920        H929   1.084       .  S
C921        C922   1.407       .  A
C922        H930   1.085       .  S
C931        C932   1.399       .  A
C931        C936   1.403       .  A
C931        H947   1.084       .  S
C932        C933   1.404       .  A
C932        H948   1.084       .  S
C933        C943   1.400       .  A
C933        C934   1.410       .  A
C934        C940   1.414       .  A
C934        C935   1.411       .  A
C935        C937   1.410       .  A
C935        C936   1.413       .  A
C936        C944   1.404       .  A
C937        C946   1.401       .  A
C937        C938   1.404       .  A
C938        C939   1.399       .  A
C938        H949   1.084       .  S
C939        C940   1.403       .  A
C939        H950   1.084       .  S
C940        C941   1.404       .  A
C941        C942   1.403       .  A
C941        H951   1.084       .  S
C942        C943   1.408       .  A
C943        H952   1.085       .  S
C944        C945   1.403       .  A
C944        H953   1.084       .  S
C945        C946   1.408       .  A
C946        H954   1.085       .  S
C955        C956   1.403       .  A
C955        C960   1.405       .  A
C955        H971   1.083       .  S
C956        C957   1.405       .  A
C956        H972   1.083       .  S
C957        C967   1.413       .  A
C957        C958   1.413       .  A
C958        C964   1.410       .  A
C958        C959   1.418       .  A
C959        C961   1.411       .  A
C959        C960   1.411       .  A
C960        C968   1.411       .  A
C961        C970   1.407       .  A
C961        C962   1.404       .  A
C962        C963   1.401       .  A
C962        H973   1.084       .  S
C963        C964   1.405       .  A
C963        H974   1.083       .  S
C964        C965   1.406       .  A
C965        C966   1.410       .  A
C965        H975   1.085       .  S
C966        C967   1.408       .  A
C967        H976   1.084       .  S
C968        C969   1.411       .  A
C968        H977   1.084       .  S
C969        C970   1.409       .  A
C970        H978   1.085       .  S
C979        C980   1.400       .  A
C979        C984   1.404       .  A
C979        H995   1.084       .  S
C980        C981   1.404       .  A
C980        H996   1.084       .  S
C981        C991   1.403       .  A
C981        C982   1.410       .  A
C982        C988   1.414       .  A
C982        C983   1.415       .  A
C983        C985   1.410       .  A
C983        C984   1.413       .  A
C984        C992   1.408       .  A
C985        C994   1.403       .  A
C985        C986   1.404       .  A
C986        C987   1.400       .  A
C986        H997   1.084       .  S
C987        C988   1.403       .  A
C987        H998   1.083       .  S
C988        C989   1.409       .  A
C989        C990   1.405       .  A
C989        H999   1.084       .  S
C990        C991   1.408       .  A
C991       H1000   1.085       .  S
C992        C993   1.406       .  A
C992       H1001   1.085       .  S
C993        C994   1.408       .  A
C994       H1002   1.085       .  S
C1003      C1004   1.398       .  A
C1003      C1008   1.402       .  A
C1003      H1019   1.083       .  S
C1004      C1005   1.404       .  A
C1004      H1020   1.083       .  S
C1005      C1015   1.399       .  A
C1005      C1006   1.407       .  A
C1006      C1012   1.414       .  A
C1006      C1007   1.416       .  A
C1007      C1009   1.408       .  A
C1007      C1008   1.415       .  A
C1008      C1016   1.407       .  A
C1009      C1018   1.406       .  A
C1009      C1010   1.406       .  A
C1010      C1011   1.403       .  A
C1010      H1021   1.084       .  S
C1011      C1012   1.405       .  A
C1011      H1022   1.084       .  S
C1012      C1013   1.413       .  A
C1013      C1014   1.410       .  A
C1013      H1023   1.084       .  S
C1014      C1015   1.411       .  A
C1015      H1024   1.084       .  S
C1016      C1017   1.403       .  A
C1016      H1025   1.084       .  S
C1017      C1018   1.414       .  A
C1018      H1026   1.085       .  S
C1027      C1028   1.403       .  A
C1027      C1032   1.405       .  A
C1027      H1043   1.083       .  S
C1028      C1029   1.405       .  A
C1028      H1044   1.083       .  S
C1029      C1039   1.413       .  A
C1029      C1030   1.413       .  A
C1030      C1036   1.410       .  A
C1030      C1031   1.419       .  A
C1031      C1033   1.412       .  A
C1031      C1032   1.412       .  A
C1032      C1040   1.411       .  A
C1033      C1042   1.409       .  A
C1033      C1034   1.405       .  A
C1034      C1035   1.401       .  A
C1034      H1045   1.083       .  S
C1035      C1036   1.405       .  A
C1035      H1046   1.084       .  S
C1036      C1037   1.407       .  A
C1037      C1038   1.411       .  A
C1037      H1047   1.085       .  S
C1038      C1039   1.411       .  A
C1039      H1048   1.084       .  S
C1040      C1041   1.408       .  A
C1040      H1049   1.084       .  S
C1041      C1042   1.409       .  A
C1042      H1050   1.084       .  S
C1051      C1052   1.400       .  A
C1051      C1056   1.404       .  A
C1051      H1067   1.084       .  S
C1052      C1053   1.404       .  A
C1052      H1068   1.084       .  S
C1053      C1063   1.406       .  A
C1053      C1054   1.413       .  A
C1054      C1060   1.410       .  A
C1054      C1055   1.414       .  A
C1055      C1057   1.414       .  A
C1055      C1056   1.411       .  A
C1056      C1064   1.403       .  A
C1057      C1066   1.407       .  A
C1057      C1058   1.403       .  A
C1058      C1059   1.400       .  A
C1058      H1069   1.084       .  S
C1059      C1060   1.405       .  A
C1059      H1070   1.083       .  S
C1060      C1061   1.404       .  A
C1061      C1062   1.409       .  A
C1061      H1071   1.085       .  S
C1062      C1063   1.405       .  A
C1063      H1072   1.085       .  S
C1064      C1065   1.407       .  A
C1064      H1073   1.085       .  S
C1065      C1066   1.404       .  A
C1066      H1074   1.084       .  S
C1075      C1076   1.399       .  A
C1075      C1080   1.403       .  A
C1075      H1091   1.084       .  S
C1076      C1077   1.404       .  A
C1076      H1092   1.084       .  S
C1077      C1087   1.403       .  A
C1077      C1078   1.411       .  A
C1078      C1084   1.412       .  A
C1078      C1079   1.413       .  A
C1079      C1081   1.412       .  A
C1079      C1080   1.411       .  A
C1080      C1088   1.402       .  A
C1081      C1090   1.406       .  A
C1081      C1082   1.404       .  A
C1082      C1083   1.401       .  A
C1082      H1093   1.083       .  S
C1083      C1084   1.404       .  A
C1083      H1094   1.083       .  S
C1084      C1085   1.407       .  A
C1085      C1086   1.409       .  A
C1085      H1095   1.084       .  S
C1086      C1087   1.408       .  A
C1087      H1096   1.085       .  S
C1088      C1089   1.406       .  A
C1088      H1097   1.085       .  S
C1089      C1090   1.404       .  A
C1090      H1098   1.084       .  S
C1099      C1100   1.401       .  A
C1099      C1104   1.405       .  A
C1099      H1115   1.083       .  S
C1100      C1101   1.404       .  A
C1100      H1116   1.083       .  S
C1101      C1111   1.408       .  A
C1101      C1102   1.414       .  A
C1102      C1108   1.410       .  A
C1102      C1103   1.414       .  A
C1103      C1105   1.413       .  A
C1103      C1104   1.410       .  A
C1104      C1112   1.405       .  A
C1105      C1114   1.406       .  A
C1105      C1106   1.403       .  A
C1106      C1107   1.399       .  A
C1106      H1117   1.084       .  S
C1107      C1108   1.404       .  A
C1107      H1118   1.084       .  S
C1108      C1109   1.402       .  A
C1109      C1110   1.408       .  A
C1109      H1119   1.085       .  S
C1110      C1111   1.405       .  A
C1111      H1120   1.084       .  S
C1112      C1113   1.409       .  A
C1112      H1121   1.085       .  S
C1113      C1114   1.405       .  A
C1114      H1122   1.085       .  S
C1123      C1124   1.400       .  A
C1123      C1128   1.404       .  A
C1123      H1139   1.083       .  S
C1124      C1125   1.404       .  A
C1124      H1140   1.084       .  S
C1125      C1135   1.405       .  A
C1125      C1126   1.411       .  A
C1126      C1132   1.413       .  A
C1126      C1127   1.417       .  A
C1127      C1129   1.411       .  A
C1127      C1128   1.411       .  A
C1128      C1136   1.408       .  A
C1129      C1138   1.411       .  A
C1129      C1130   1.406       .  A
C1130      C1131   1.403       .  A
C1130      H1141   1.083       .  S
C1131      C1132   1.405       .  A
C1131      H1142   1.083       .  S
C1132      C1133   1.411       .  A
C1133      C1134   1.407       .  A
C1133      H1143   1.084       .  S
C1134      C1135   1.408       .  A
C1135      H1144   1.085       .  S
C1136      C1137   1.410       .  A
C1136      H1145   1.085       .  S
C1137      C1138   1.413       .  A
C1138      H1146   1.084       .  S
C1147      C1148   1.399       .  A
C1147      C1152   1.404       .  A
C1147      H1163   1.083       .  S
C1148      C1149   1.403       .  A
C1148      H1164   1.084       .  S
C1149      C1159   1.401       .  A
C1149      C1150   1.410       .  A
C1150      C1156   1.414       .  A
C1150      C1151   1.415       .  A
C1151      C1153   1.410       .  A
C1151      C1152   1.413       .  A
C1152      C1160   1.406       .  A
C1153      C1162   1.407       .  A
C1153      C1154   1.405       .  A
C1154      C1155   1.401       .  A
C1154      H1165   1.083       .  S
C1155      C1156   1.404       .  A
C1155      H1166   1.084       .  S
C1156      C1157   1.409       .  A
C1157      C1158   1.405       .  A
C1157      H1167   1.084       .  S
C1158      C1159   1.407       .  A
C1159      H1168   1.085       .  S
C1160      C1161   1.406       .  A
C1160      H1169   1.085       .  S
C1161      C1162   1.410       .  A
C1162      H1170   1.084       .  S
C1171      C1172   1.403       .  A
C1171      C1176   1.405       .  A
C1171      H1187   1.083       .  S
C1172      C1173   1.405       .  A
C1172      H1188   1.083       .  S
C1173      C1183   1.411       .  A
C1173      C1174   1.413       .  A
C1174      C1180   1.411       .  A
C1174      C1175   1.416       .  A
C1175      C1177   1.411       .  A
C1175      C1176   1.412       .  A
C1176      C1184   1.411       .  A
C1177      C1186   1.405       .  A
C1177      C1178   1.404       .  A
C1178      C1179   1.399       .  A
C1178      H1189   1.084       .  S
C1179      C1180   1.403       .  A
C1179      H1190   1.084       .  S
C1180      C1181   1.404       .  A
C1181      C1182   1.406       .  A
C1181      H1191   1.085       .  S
C1182      C1183   1.407       .  A
C1183      H1192   1.084       .  S
C1184      C1185   1.410       .  A
C1184      H1193   1.084       .  S
C1185      C1186   1.409       .  A
C1186      H1194   1.085       .  S
C1195      C1196   1.403       .  A
C1195      C1200   1.405       .  A
C1195      H1211   1.083       .  S
C1196      C1197   1.404       .  A
C1196      H1212   1.083       .  S
C1197      C1207   1.411       .  A
C1197      C1198   1.414       .  A
C1198      C1204   1.410       .  A
C1198      C1199   1.416       .  A
C1199      C1201   1.412       .  A
C1199      C1200   1.410       .  A
C1200      C1208   1.409       .  A
C1201      C1210   1.406       .  A
C1201      C1202   1.404       .  A
C1202      C1203   1.399       .  A
C1202      H1213   1.083       .  S
C1203      C1204   1.404       .  A
C1203      H1214   1.084       .  S
C1204      C1205   1.403       .  A
C1205      C1206   1.409       .  A
C1205      H1215   1.085       .  S
C1206      C1207   1.406       .  A
C1207      H1216   1.084       .  S
C1208      C1209   1.412       .  A
C1208      H1217   1.084       .  S
C1209      C1210   1.408       .  A
C1210      H1218   1.085       .  S
C1219      C1220   1.401       .  A
C1219      C1224   1.404       .  A
C1219      H1235   1.084       .  S
C1220      C1221   1.405       .  A
C1220      H1236   1.084       .  S
C1221      C1231   1.403       .  A
C1221      C1222   1.410       .  A
C1222      C1228   1.414       .  A
C1222      C1223   1.412       .  A
C1223      C1225   1.410       .  A
C1223      C1224   1.414       .  A
C1224      C1232   1.407       .  A
C1225      C1234   1.400       .  A
C1225      C1226   1.404       .  A
C1226      C1227   1.398       .  A
C1226      H1237   1.083       .  S
C1227      C1228   1.402       .  A
C1227      H1238   1.084       .  S
C1228      C1229   1.403       .  A
C1229      C1230   1.402       .  A
C1229      H1239   1.084       .  S
C1230      C1231   1.409       .  A
C1231      H1240   1.085       .  S
C1232      C1233   1.406       .  A
C1232      H1241   1.084       .  S
C1233      C1234   1.407       .  A
C1234      H1242   1.085       .  S
C1243      C1244   1.399       .  A
C1243      C1248   1.403       .  A
C1243      H1259   1.084       .  S
C1244      C1245   1.404       .  A
C1244      H1260   1.083       .  S
C1245      C1255   1.403       .  A
C1245      C1246   1.411       .  A
C1246      C1252   1.413       .  A
C1246      C1247   1.414       .  A
C1247      C1249   1.412       .  A
C1247      C1248   1.411       .  A
C1248      C1256   1.403       .  A
C1249      C1258   1.406       .  A
C1249      C1250   1.404       .  A
C1250      C1251   1.401       .  A
C1250      H1261   1.083       .  S
C1251      C1252   1.404       .  A
C1251      H1262   1.083       .  S
C1252      C1253   1.409       .  A
C1253      C1254   1.406       .  A
C1253      H1263   1.084       .  S
C1254      C1255   1.407       .  A
C1255      H1264   1.085       .  S
C1256      C1257   1.406       .  A
C1256      H1265   1.085       .  S
C1257      C1258   1.408       .  A
C1258      H1266   1.084       .  S
C1267      C1268   1.400       .  A
C1267      C1272   1.404       .  A
C1267      H1283   1.083       .  S
C1268      C1269   1.403       .  A
C1268      H1284   1.084       .  S
C1269      C1279   1.406       .  A
C1269      C1270   1.413       .  A
C1270      C1276   1.411       .  A
C1270      C1271   1.415       .  A
C1271      C1273   1.413       .  A
C1271      C1272   1.411       .  A
C1272      C1280   1.404       .  A
C1273      C1282   1.407       .  A
C1273      C1274   1.404       .  A
C1274      C1275   1.401       .  A
C1274      H1285   1.084       .  S
C1275      C1276   1.405       .  A
C1275      H1286   1.083       .  S
C1276      C1277   1.406       .  A
C1277      C1278   1.410       .  A
C1277      H1287   1.084       .  S
C1278      C1279   1.405       .  A
C1279      H1288   1.084       .  S
C1280      C1281   1.409       .  A
C1280      H1289   1.085       .  S
C1281      C1282   1.406       .  A
C1282      H1290   1.084       .  S
C1291      C1292   1.402       .  A
C1291      C1296   1.405       .  A
C1291      H1307   1.083       .  S
C1292      C1293   1.404       .  A
C1292      H1308   1.083       .  S
C1293      C1303   1.409       .  A
C1293      C1294   1.414       .  A
C1294      C1300   1.410       .  A
C1294      C1295   1.414       .  A
C1295      C1297   1.412       .  A
C1295      C1296   1.410       .  A
C1296      C1304   1.408       .  A
C1297      C1306   1.404       .  A
C1297      C1298   1.403       .  A
C1298      C1299   1.398       .  A
C1298      H1309   1.083       .  S
C1299      C1300   1.403       .  A
C1299      H1310   1.084       .  S
C1300      C1301   1.399       .  A
C1301      C1302   1.405       .  A
C1301      H1311   1.085       .  S
C1302      C1303   1.405       .  A
C1303      H1312   1.084       .  S
C1304      C1305   1.410       .  A
C1304      H1313   1.084       .  S
C1305      C1306   1.407       .  A
C1306      H1314   1.085       .  S
C1315      C1316   1.399       .  A
C1315      C1320   1.404       .  A
C1315      H1331   1.084       .  S
C1316      C1317   1.403       .  A
C1316      H1332   1.084       .  S
C1317      C1327   1.403       .  A
C1317      C1318   1.412       .  A
C1318      C1324   1.413       .  A
C1318      C1319   1.413       .  A
C1319      C1321   1.412       .  A
C1319      C1320   1.412       .  A
C1320      C1328   1.403       .  A
C1321      C1330   1.405       .  A
C1321      C1322   1.404       .  A
C1322      C1323   1.400       .  A
C1322      H1333   1.083       .  S
C1323      C1324   1.404       .  A
C1323      H1334   1.083       .  S
C1324      C1325   1.406       .  A
C1325      C1326   1.404       .  A
C1325      H1335   1.084       .  S
C1326      C1327   1.404       .  A
C1327      H1336   1.085       .  S
C1328      C1329   1.405       .  A
C1328      H1337   1.085       .  S
C1329      C1330   1.406       .  A
C1330      H1338   1.084       .  S
C1339      C1340   1.403       .  A
C1339      C1344   1.406       .  A
C1339      H1355   1.083       .  S
C1340      C1341   1.404       .  A
C1340      H1356   1.083       .  S
C1341      C1351   1.411       .  A
C1341      C1342   1.414       .  A
C1342      C1348   1.410       .  A
C1342      C1343   1.416       .  A
C1343      C1345   1.412       .  A
C1343      C1344   1.410       .  A
C1344      C1352   1.409       .  A
C1345      C1354   1.406       .  A
C1345      C1346   1.403       .  A
C1346      C1347   1.399       .  A
C1346      H1357   1.083       .  S
C1347      C1348   1.403       .  A
C1347      H1358   1.083       .  S
C1348      C1349   1.403       .  A
C1349      C1350   1.407       .  A
C1349      H1359   1.085       .  S
C1350      C1351   1.406       .  A
C1351      H1360   1.084       .  S
C1352      C1353   1.413       .  A
C1352      H1361   1.084       .  S
C1353      C1354   1.406       .  A
C1354      H1362   1.085       .  S
C1363      C1364   1.401       .  A
C1363      C1368   1.404       .  A
C1363      H1379   1.084       .  S
C1364      C1365   1.405       .  A
C1364      H1380   1.084       .  S
C1365      C1375   1.405       .  A
C1365      C1366   1.410       .  A
C1366      C1372   1.413       .  A
C1366      C1367   1.415       .  A
C1367      C1369   1.411       .  A
C1367      C1368   1.413       .  A
C1368      C1376   1.408       .  A
C1369      C1378   1.403       .  A
C1369      C1370   1.404       .  A
C1370      C1371   1.399       .  A
C1370      H1381   1.083       .  S
C1371      C1372   1.403       .  A
C1371      H1382   1.084       .  S
C1372      C1373   1.405       .  A
C1373      C1374   1.404       .  A
C1373      H1383   1.084       .  S
C1374      C1375   1.411       .  A
C1375      H1384   1.085       .  S
C1376      C1377   1.407       .  A
C1376      H1385   1.084       .  S
C1377      C1378   1.407       .  A
C1378      H1386   1.084       .  S
C1387      C1388   1.401       .  A
C1387      C1392   1.405       .  A
C1387      H1403   1.084       .  S
C1388      C1389   1.404       .  A
C1388      H1404   1.084       .  S
C1389      C1399   1.407       .  A
C1389      C1390   1.413       .  A
C1390      C1396   1.411       .  A
C1390      C1391   1.413       .  A
C1391      C1393   1.413       .  A
C1391      C1392   1.411       .  A
C1392      C1400   1.405       .  A
C1393      C1402   1.404       .  A
C1393      C1394   1.402       .  A
C1394      C1395   1.398       .  A
C1394      H1405   1.083       .  S
C1395      C1396   1.403       .  A
C1395      H1406   1.083       .  S
C1396      C1397   1.402       .  A
C1397      C1398   1.406       .  A
C1397      H1407   1.085       .  S
C1398      C1399   1.406       .  A
C1399      H1408   1.085       .  S
C1400      C1401   1.408       .  A
C1400      H1409   1.085       .  S
C1401      C1402   1.401       .  A
C1402      H1410   1.084       .  S
C1411      C1412   1.398       .  A
C1411      C1416   1.403       .  A
C1411      H1427   1.084       .  S
C1412      C1413   1.403       .  A
C1412      H1428   1.083       .  S
C1413      C1423   1.406       .  A
C1413      C1414   1.413       .  A
C1414      C1420   1.410       .  A
C1414      C1415   1.418       .  A
C1415      C1417   1.414       .  A
C1415      C1416   1.409       .  A
C1416      C1424   1.401       .  A
C1417      C1426   1.416       .  A
C1417      C1418   1.406       .  A
C1418      C1419   1.406       .  A
C1418      H1429   1.083       .  S
C1419      C1420   1.407       .  A
C1419      H1430   1.083       .  S
C1420      C1421   1.412       .  A
C1421      C1422   1.415       .  A
C1421      H1431   1.084       .  S
C1422      C1423   1.406       .  A
C1423      H1432   1.085       .  S
C1424      C1425   1.407       .  A
C1424      H1433   1.085       .  S
C1425      C1426   1.410       .  A
C1426      H1434   1.084       .  S
C1435      C1436   1.403       .  A
C1435      C1440   1.405       .  A
C1435      H1451   1.083       .  S
C1436      C1437   1.405       .  A
C1436      H1452   1.083       .  S
C1437      C1447   1.410       .  A
C1437      C1438   1.411       .  A
C1438      C1444   1.411       .  A
C1438      C1439   1.416       .  A
C1439      C1441   1.411       .  A
C1439      C1440   1.412       .  A
C1440      C1448   1.409       .  A
C1441      C1450   1.404       .  A
C1441      C1442   1.403       .  A
C1442      C1443   1.399       .  A
C1442      H1453   1.083       .  S
C1443      C1444   1.404       .  A
C1443      H1454   1.084       .  S
C1444      C1445   1.404       .  A
C1445      C1446   1.407       .  A
C1445      H1455   1.085       .  S
C1446      C1447   1.412       .  A
C1447      H1456   1.084       .  S
C1448      C1449   1.406       .  A
C1448      H1457   1.084       .  S
C1449      C1450   1.407       .  A
C1450      H1458   1.085       .  S
C1459      C1460   1.403       .  A
C1459      C1464   1.404       .  A
C1459      H1475   1.083       .  S
C1460      C1461   1.405       .  A
C1460      H1476   1.084       .  S
C1461      C1471   1.407       .  A
C1461      C1462   1.409       .  A
C1462      C1468   1.414       .  A
C1462      C1463   1.418       .  A
C1463      C1465   1.409       .  A
C1463      C1464   1.414       .  A
C1464      C1472   1.413       .  A
C1465      C1474   1.406       .  A
C1465      C1466   1.405       .  A
C1466      C1467   1.401       .  A
C1466      H1477   1.083       .  S
C1467      C1468   1.404       .  A
C1467      H1478   1.083       .  S
C1468      C1469   1.410       .  A
C1469      C1470   1.407       .  A
C1469      H1479   1.084       .  S
C1470      C1471   1.412       .  A
C1471      H1480   1.085       .  S
C1472      C1473   1.408       .  A
C1472      H1481   1.084       .  S
C1473      C1474   1.411       .  A
C1474      H1482   1.084       .  S
C1483      C1484   1.400       .  A
C1483      C1488   1.404       .  A
C1483      H1499   1.083       .  S
C1484      C1485   1.404       .  A
C1484      H1500   1.083       .  S
C1485      C1495   1.408       .  A
C1485      C1486   1.413       .  A
C1486      C1492   1.411       .  A
C1486      C1487   1.415       .  A
C1487      C1489   1.412       .  A
C1487      C1488   1.411       .  A
C1488      C1496   1.405       .  A
C1489      C1498   1.405       .  A
C1489      C1490   1.403       .  A
C1490      C1491   1.400       .  A
C1490      H1501   1.084       .  S
C1491      C1492   1.405       .  A
C1491      H1502   1.083       .  S
C1492      C1493   1.405       .  A
C1493      C1494   1.409       .  A
C1493      H1503   1.085       .  S
C1494      C1495   1.405       .  A
C1495      H1504   1.084       .  S
C1496      C1497   1.408       .  A
C1496      H1505   1.085       .  S
C1497      C1498   1.405       .  A
C1498      H1506   1.085       .  S
C1507      C1508   1.404       .  A
C1507      C1512   1.405       .  A
C1507      H1523   1.083       .  S
C1508      C1509   1.405       .  A
C1508      H1524   1.083       .  S
C1509      C1519   1.412       .  A
C1509      C1510   1.413       .  A
C1510      C1516   1.410       .  A
C1510      C1511   1.416       .  A
C1511      C1513   1.411       .  A
C1511      C1512   1.411       .  A
C1512      C1520   1.410       .  A
C1513      C1522   1.405       .  A
C1513      C1514   1.404       .  A
C1514      C1515   1.399       .  A
C1514      H1525   1.083       .  S
C1515      C1516   1.403       .  A
C1515      H1526   1.084       .  S
C1516      C1517   1.403       .  A
C1517      C1518   1.407       .  A
C1517      H1527   1.085       .  S
C1518      C1519   1.408       .  A
C1519      H1528   1.084       .  S
C1520      C1521   1.412       .  A
C1520      H1529   1.084       .  S
C1521      C1522   1.409       .  A
C1522      H1530   1.085       .  S
C1531      C1532   1.399       .  A
C1531      C1536   1.403       .  A
C1531      H1547   1.083       .  S
C1532      C1533   1.404       .  A
C1532      H1548   1.083       .  S
C1533      C1543   1.403       .  A
C1533      C1534   1.409       .  A
C1534      C1540   1.415       .  A
C1534      C1535   1.417       .  A
C1535      C1537   1.410       .  A
C1535      C1536   1.413       .  A
C1536      C1544   1.407       .  A
C1537      C1546   1.408       .  A
C1537      C1538   1.406       .  A
C1538      C1539   1.404       .  A
C1538      H1549   1.084       .  S
C1539      C1540   1.405       .  A
C1539      H1550   1.083       .  S
C1540      C1541   1.414       .  A
C1541      C1542   1.408       .  A
C1541      H1551   1.084       .  S
C1542      C1543   1.409       .  A
C1543      H1552   1.085       .  S
C1544      C1545   1.405       .  A
C1544      H1553   1.085       .  S
C1545      C1546   1.412       .  A
C1546      H1554   1.085       .  S
C1555      C1556   1.404       .  A
C1555      C1560   1.405       .  A
C1555      H1571   1.083       .  S
C1556      C1557   1.405       .  A
C1556      H1572   1.083       .  S
C1557      C1567   1.412       .  A
C1557      C1558   1.412       .  A
C1558      C1564   1.411       .  A
C1558      C1559   1.417       .  A
C1559      C1561   1.411       .  A
C1559      C1560   1.411       .  A
C1560      C1568   1.410       .  A
C1561      C1570   1.406       .  A
C1561      C1562   1.404       .  A
C1562      C1563   1.400       .  A
C1562      H1573   1.083       .  S
C1563      C1564   1.403       .  A
C1563      H1574   1.083       .  S
C1564      C1565   1.405       .  A
C1565      C1566   1.407       .  A
C1565      H1575   1.085       .  S
C1566      C1567   1.409       .  A
C1567      H1576   1.084       .  S
C1568      C1569   1.410       .  A
C1568      H1577   1.084       .  S
C1569      C1570   1.410       .  A
C1570      H1578   1.085       .  S
C1579      C1580   1.400       .  A
C1579      C1584   1.404       .  A
C1579      H1595   1.084       .  S
C1580      C1581   1.404       .  A
C1580      H1596   1.083       .  S
C1581      C1591   1.404       .  A
C1581      C1582   1.410       .  A
C1582      C1588   1.413       .  A
C1582      C1583   1.416       .  A
C1583      C1585   1.411       .  A
C1583      C1584   1.412       .  A
C1584      C1592   1.405       .  A
C1585      C1594   1.409       .  A
C1585      C1586   1.405       .  A
C1586      C1587   1.403       .  A
C1586      H1597   1.083       .  S
C1587      C1588   1.404       .  A
C1587      H1598   1.083       .  S
C1588      C1589   1.411       .  A
C1589      C1590   1.406       .  A
C1589      H1599   1.084       .  S
C1590      C1591   1.409       .  A
C1591      H1600   1.085       .  S
C1592      C1593   1.408       .  A
C1592      H1601   1.085       .  S
C1593      C1594   1.411       .  A
C1594      H1602   1.084       .  S
C1603      C1604   1.398       .  A
C1603      C1608   1.403       .  A
C1603      H1619   1.084       .  S
C1604      C1605   1.403       .  A
C1604      H1620   1.083       .  S
C1605      C1615   1.406       .  A
C1605      C1606   1.414       .  A
C1606      C1612   1.409       .  A
C1606      C1607   1.413       .  A
C1607      C1609   1.414       .  A
C1607      C1608   1.410       .  A
C1608      C1616   1.399       .  A
C1609      C1618   1.406       .  A
C1609      C1610   1.403       .  A
C1610      C1611   1.400       .  A
C1610      H1621   1.084       .  S
C1611      C1612   1.405       .  A
C1611      H1622   1.084       .  S
C1612      C1613   1.403       .  A
C1613      C1614   1.411       .  A
C1613      H1623   1.084       .  S
C1614      C1615   1.404       .  A
C1615      H1624   1.084       .  S
C1616      C1617   1.406       .  A
C1616      H1625   1.085       .  S
C1617      C1618   1.404       .  A
C1618      H1626   1.084       .  S
C1627      C1628   1.401       .  A
C1627      C1632   1.404       .  A
C1627      H1643   1.083       .  S
C1628      C1629   1.403       .  A
C1628      H1644   1.083       .  S
C1629      C1639   1.408       .  A
C1629      C1630   1.413       .  A
C1630      C1636   1.410       .  A
C1630      C1631   1.415       .  A
C1631      C1633   1.412       .  A
C1631      C1632   1.411       .  A
C1632      C1640   1.407       .  A
C1633      C1642   1.405       .  A
C1633      C1634   1.404       .  A
C1634      C1635   1.400       .  A
C1634      H1645   1.084       .  S
C1635      C1636   1.404       .  A
C1635      H1646   1.084       .  S
C1636      C1637   1.404       .  A
C1637      C1638   1.410       .  A
C1637      H1647   1.085       .  S
C1638      C1639   1.404       .  A
C1639      H1648   1.084       .  S
C1640      C1641   1.410       .  A
C1640      H1649   1.084       .  S
C1641      C1642   1.408       .  A
C1642      H1650   1.085       .  S
C1651      C1652   1.402       .  A
C1651      C1656   1.405       .  A
C1651      H1667   1.083       .  S
C1652      C1653   1.404       .  A
C1652      H1668   1.083       .  S
C1653      C1663   1.412       .  A
C1653      C1654   1.415       .  A
C1654      C1660   1.409       .  A
C1654      C1655   1.417       .  A
C1655      C1657   1.414       .  A
C1655      C1656   1.409       .  A
C1656      C1664   1.406       .  A
C1657      C1666   1.410       .  A
C1657      C1658   1.404       .  A
C1658      C1659   1.401       .  A
C1658      H1669   1.083       .  S
C1659      C1660   1.404       .  A
C1659      H1670   1.084       .  S
C1660      C1661   1.403       .  A
C1661      C1662   1.410       .  A
C1661      H1671   1.085       .  S
C1662      C1663   1.406       .  A
C1663      H1672   1.084       .  S
C1664      C1665   1.411       .  A
C1664      H1673   1.085       .  S
C1665      C1666   1.407       .  A
C1666      H1674   1.084       .  S
C1675      C1676   1.405       .  A
C1675      C1680   1.405       .  A
C1675      H1691   1.084       .  S
C1676      C1677   1.407       .  A
C1676      H1692   1.083       .  S
C1677      C1687   1.414       .  A
C1677      C1678   1.410       .  A
C1678      C1684   1.412       .  A
C1678      C1679   1.419       .  A
C1679      C1681   1.410       .  A
C1679      C1680   1.413       .  A
C1680      C1688   1.414       .  A
C1681      C1690   1.404       .  A
C1681      C1682   1.403       .  A
C1682      C1683   1.400       .  A
C1682      H1693   1.083       .  S
C1683      C1684   1.404       .  A
C1683      H1694   1.083       .  S
C1684      C1685   1.408       .  A
C1685      C1686   1.409       .  A
C1685      H1695   1.085       .  S
C1686      C1687   1.417       .  A
C1687      H1696   1.084       .  S
C1688      C1689   1.408       .  A
C1688      H1697   1.084       .  S
C1689      C1690   1.408       .  A
C1690      H1698   1.085       .  S
C1699      C1700   1.400       .  A
C1699      C1704   1.403       .  A
C1699      H1715   1.083       .  S
C1700      C1701   1.404       .  A
C1700      H1716   1.083       .  S
C1701      C1711   1.405       .  A
C1701      C1702   1.410       .  A
C1702      C1708   1.414       .  A
C1702      C1703   1.419       .  A
C1703      C1705   1.410       .  A
C1703      C1704   1.413       .  A
C1704      C1712   1.408       .  A
C1705      C1714   1.409       .  A
C1705      C1706   1.406       .  A
C1706      C1707   1.404       .  A
C1706      H1717   1.084       .  S
C1707      C1708   1.405       .  A
C1707      H1718   1.083       .  S
C1708      C1709   1.415       .  A
C1709      C1710   1.409       .  A
C1709      H1719   1.084       .  S
C1710      C1711   1.410       .  A
C1711      H1720   1.084       .  S
C1712      C1713   1.406       .  A
C1712      H1721   1.085       .  S
C1713      C1714   1.411       .  A
C1714      H1722   1.084       .  S
C1723      C1724   1.401       .  A
C1723      C1728   1.405       .  A
C1723      H1739   1.083       .  S
C1724      C1725   1.404       .  A
C1724      H1740   1.084       .  S
C1725      C1735   1.407       .  A
C1725      C1726   1.411       .  A
C1726      C1732   1.413       .  A
C1726      C1727   1.419       .  A
C1727      C1729   1.412       .  A
C1727      C1728   1.411       .  A
C1728      C1736   1.408       .  A
C1729      C1738   1.413       .  A
C1729      C1730   1.405       .  A
C1730      C1731   1.404       .  A
C1730      H1741   1.083       .  S
C1731      C1732   1.405       .  A
C1731      H1742   1.083       .  S
C1732      C1733   1.412       .  A
C1733      C1734   1.408       .  A
C1733      H1743   1.084       .  S
C1734      C1735   1.409       .  A
C1735      H1744   1.085       .  S
C1736      C1737   1.412       .  A
C1736      H1745   1.085       .  S
C1737      C1738   1.411       .  A
C1738      H1746   1.084       .  S
C1747      C1748   1.402       .  A
C1747      C1752   1.405       .  A
C1747      H1763   1.083       .  S
C1748      C1749   1.403       .  A
C1748      H1764   1.084       .  S
C1749      C1759   1.409       .  A
C1749      C1750   1.414       .  A
C1750      C1756   1.411       .  A
C1750      C1751   1.417       .  A
C1751      C1753   1.412       .  A
C1751      C1752   1.410       .  A
C1752      C1760   1.408       .  A
C1753      C1762   1.408       .  A
C1753      C1754   1.404       .  A
C1754      C1755   1.401       .  A
C1754      H1765   1.083       .  S
C1755      C1756   1.404       .  A
C1755      H1766   1.084       .  S
C1756      C1757   1.405       .  A
C1757      C1758   1.408       .  A
C1757      H1767   1.085       .  S
C1758      C1759   1.405       .  A
C1759      H1768   1.084       .  S
C1760      C1761   1.410       .  A
C1760      H1769   1.084       .  S
C1761      C1762   1.407       .  A
C1762      H1770   1.084       .  S
C1771      C1772   1.404       .  A
C1771      C1776   1.405       .  A
C1771      H1787   1.083       .  S
C1772      C1773   1.407       .  A
C1772      H1788   1.083       .  S
C1773      C1783   1.409       .  A
C1773      C1774   1.410       .  A
C1774      C1780   1.414       .  A
C1774      C1775   1.417       .  A
C1775      C1777   1.409       .  A
C1775      C1776   1.415       .  A
C1776      C1784   1.414       .  A
C1777      C1786   1.402       .  A
C1777      C1778   1.403       .  A
C1778      C1779   1.399       .  A
C1778      H1789   1.084       .  S
C1779      C1780   1.403       .  A
C1779      H1790   1.083       .  S
C1780      C1781   1.407       .  A
C1781      C1782   1.405       .  A
C1781      H1791   1.085       .  S
C1782      C1783   1.413       .  A
C1783      H1792   1.085       .  S
C1784      C1785   1.408       .  A
C1784      H1793   1.084       .  S
C1785      C1786   1.408       .  A
C1786      H1794   1.085       .  S
C1795      C1796   1.403       .  A
C1795      C1800   1.405       .  A
C1795      H1811   1.083       .  S
C1796      C1797   1.405       .  A
C1796      H1812   1.083       .  S
C1797      C1807   1.411       .  A
C1797      C1798   1.412       .  A
C1798      C1804   1.411       .  A
C1798      C1799   1.418       .  A
C1799      C1801   1.411       .  A
C1799      C1800   1.412       .  A
C1800      C1808   1.410       .  A
C1801      C1810   1.405       .  A
C1801      C1802   1.404       .  A
C1802      C1803   1.400       .  A
C1802      H1813   1.084       .  S
C1803      C1804   1.405       .  A
C1803      H1814   1.083       .  S
C1804      C1805   1.407       .  A
C1805      C1806   1.410       .  A
C1805      H1815   1.085       .  S
C1806      C1807   1.408       .  A
C1807      H1816   1.084       .  S
C1808      C1809   1.411       .  A
C1808      H1817   1.084       .  S
C1809      C1810   1.409       .  A
C1810      H1818   1.085       .  S
