geometry optimzed in LAMMPS
_audit_creation_date              2020-12-01 
_audit_creation_method            'lammps2cif' 
_symmetry_space_group_name_H-M    'P1' 
_symmetry_Int_Tables_number       1 
_symmetry_cell_setting            triclinic 
loop_ 
_symmetry_equiv_pos_as_xyz 
  x,y,z 
_cell_length_a                    103.52322324 
_cell_length_b                    103.61139588556688 
_cell_length_c                    103.61468574010401 
_cell_angle_alpha                 89.94863608758396 
_cell_angle_beta                  89.96768129831842 
_cell_angle_gamma                 90.01211330163994 
loop_ 
_atom_site_label 
_atom_site_type_symbol 
_atom_site_fract_x 
_atom_site_fract_y 
_atom_site_fract_z 
_atom_site_charge 
N1          N  0.05568003  0.66123233  0.81330952    -0.27400
N2          N  0.05324264  0.67316167  0.80950838    -0.35300
C3          C  0.04038961  0.67464311  0.80828833     0.00900
C4          C  0.03443523  0.66311325  0.81157410     0.06900
C5          C  0.04445307  0.65482957  0.81470681    -0.06200
H6          H  0.03569839  0.68352516  0.80542480     0.07600
H7          H  0.04363946  0.64494100  0.81796526     0.08800
Cu8        Cu  0.06754095  0.68708057  0.80723446     0.44200
Cu9        Cu  0.07419900  0.65445365  0.81669247     0.42000
Cu10       Cu  0.10020980  0.67826261  0.81635507     0.43900
N11         N  0.08288968  0.70001047  0.80793382    -0.34800
N12         N  0.09474619  0.69694795  0.81157197    -0.29100
C13         C  0.10197821  0.70775984  0.81201890    -0.05200
C14         C  0.09427170  0.71809599  0.80849368     0.07000
C15         C  0.08227512  0.71280648  0.80593126     0.00800
H16         H  0.11194421  0.70812807  0.81513246     0.08500
H17         H  0.07358006  0.71797856  0.80332183     0.07600
N18         N  0.10296675  0.65863594  0.81937338    -0.36300
N19         N  0.09353397  0.65001404  0.81935342    -0.28500
C20         C  0.09863729  0.63815374  0.82066734    -0.03700
C21         C  0.11189727  0.63937426  0.82155796     0.04900
C22         C  0.11432060  0.65247009  0.82073010     0.03000
H23         H  0.09313458  0.62927516  0.82059547     0.08100
H24         H  0.12367705  0.65712869  0.82063613     0.07000
N25         N  0.95773585  0.65542504  0.81053312    -0.27400
N26         N  0.96039934  0.65546422  0.79805835    -0.35300
C27         C  0.97324254  0.65600691  0.79640928     0.00900
C28         C  0.97909112  0.65613482  0.80839715     0.06900
C29         C  0.96894202  0.65574811  0.81717510    -0.06200
H30         H  0.97799394  0.65643007  0.78711511     0.07600
H31         H  0.96963917  0.65578050  0.82758810     0.08800
Cu32       Cu  0.94669023  0.65530092  0.78359379     0.44200
Cu33       Cu  0.93880156  0.65562720  0.81750161     0.42000
Cu34       Cu  0.91368308  0.65972665  0.79263563     0.43900
N35         N  0.93214107  0.65829053  0.77031837    -0.34800
N36         N  0.92004929  0.66065935  0.77361169    -0.29100
C37         C  0.91331264  0.66368808  0.76291869    -0.05200
C38         C  0.92157016  0.66306696  0.75238005     0.07000
C39         C  0.93340242  0.65950579  0.75746964     0.00800
H40         H  0.90322341  0.66639399  0.76284960     0.08500
H41         H  0.94237438  0.65824066  0.75227096     0.07600
N42         N  0.90998647  0.65758236  0.81226771    -0.36300
N43         N  0.91897999  0.65624551  0.82125358    -0.28500
C44         C  0.91317439  0.65505771  0.83283280    -0.03700
C45         C  0.89991661  0.65557297  0.83105552     0.04900
C46         C  0.89827703  0.65716490  0.81789561     0.03000
H47         H  0.91823476  0.65380188  0.84188228     0.08100
H48         H  0.88920440  0.65781926  0.81275352     0.07000
N49         N  0.90769694  0.67179626  0.67767680    -0.27400
N50         N  0.90711718  0.68432537  0.68005876    -0.35300
C51         C  0.90857450  0.68629571  0.69279964     0.00900
C52         C  0.91031201  0.67446601  0.69874093     0.06900
C53         C  0.90967898  0.66548685  0.68886181    -0.06200
H54         H  0.90863936  0.69568294  0.69735993     0.07600
H55         H  0.91080012  0.65514083  0.68971943     0.08800
Cu56       Cu  0.90550800  0.69842998  0.66595957     0.44200
Cu57       Cu  0.90595387  0.66381066  0.65932029     0.42000
Cu58       Cu  0.90340756  0.68731004  0.63339150     0.43900
N59         N  0.90528210  0.71074313  0.65019064    -0.34800
N60         N  0.90418896  0.70662577  0.63818522    -0.29100
C61         C  0.90432192  0.71681410  0.63014686    -0.05200
C62         C  0.90576120  0.72790649  0.63743969     0.07000
C63         C  0.90636334  0.72367078  0.65011411     0.00800
H64         H  0.90358642  0.71616475  0.61975389     0.08500
H65         H  0.90767427  0.72954193  0.65864317     0.07600
N66         N  0.90282929  0.66758864  0.63063229    -0.36300
N67         N  0.90353022  0.65892116  0.63998246    -0.28500
C68         C  0.90207716  0.64707773  0.63482206    -0.03700
C69         C  0.90042335  0.64843184  0.62161632     0.04900
C70         C  0.90104010  0.66154521  0.61932344     0.22200
H71         H  0.90196097  0.63818076  0.64029394     0.08100
H72         H  0.89998123  0.66637718  0.61012375     0.07000
N73         N  0.91283478  0.80213970  0.61926208    -0.27400
N74         N  0.92492290  0.79924316  0.62209587    -0.35300
C75         C  0.92583673  0.78654657  0.62442468     0.00900
C76         C  0.91375637  0.78109590  0.62288717     0.06900
C77         C  0.90570734  0.79126660  0.61956976    -0.06200
H78         H  0.93459833  0.78168805  0.62738805     0.07600
H79         H  0.89540372  0.79086864  0.61789639     0.08800
Cu80       Cu  0.93951289  0.81268033  0.62347666     0.44200
Cu81       Cu  0.90678743  0.82103959  0.61681163     0.42000
Cu82       Cu  0.93116880  0.84627857  0.62355148     0.43900
N83         N  0.95293068  0.82717987  0.62570880    -0.34800
N84         N  0.95000948  0.83958543  0.62610231    -0.29100
C85         C  0.96088699  0.84633710  0.62846395    -0.05200
C86         C  0.97108671  0.83770401  0.62955406     0.07000
C87         C  0.96565732  0.82567680  0.62765989     0.00800
H88         H  0.96131599  0.85671280  0.62951524     0.08500
H89         H  0.97055870  0.81646027  0.62791214     0.07600
N90         N  0.91153185  0.84971107  0.62049670    -0.36300
N91         N  0.90292301  0.84064024  0.61782895    -0.28500
C92         C  0.89122442  0.84611003  0.61652747    -0.03700
C93         C  0.89246112  0.85923027  0.61850881     0.04900
C94         C  0.90545851  0.86119284  0.62098926     0.03000
H95         H  0.88243093  0.84088852  0.61439033     0.08100
H96         H  0.91013935  0.87029120  0.62308045     0.07000
N97         N  0.08307554  0.84889820  0.67698018    -0.27400
N98         N  0.07108475  0.85214185  0.67992496    -0.35300
C99         C  0.06967498  0.85176626  0.69282269     0.00900
C100        C  0.08127077  0.84788633  0.69826586     0.06900
C101        C  0.08955475  0.84620406  0.68790641    -0.06200
H102        H  0.06066107  0.85347597  0.69782581     0.07600
H103        H  0.09938132  0.84266277  0.68823502     0.08800
Cu104      Cu  0.05656168  0.85440351  0.66626297     0.44200
Cu105      Cu  0.08970860  0.84718002  0.65819890     0.42000
Cu106      Cu  0.06516090  0.84609002  0.63337328     0.43900
N107        N  0.04316187  0.85170762  0.65157166    -0.34800
N108        N  0.04628883  0.84813596  0.63972740    -0.29100
C109        C  0.03542828  0.84571785  0.63302956    -0.05200
C110        C  0.02493782  0.84791922  0.64101429     0.07000
C111        C  0.03021463  0.85176759  0.65267809     0.00800
H112        H  0.03520135  0.84218904  0.62320939     0.08500
H113        H  0.02503663  0.85392942  0.66148308     0.07600
N114        N  0.08480660  0.84562430  0.62957366    -0.36300
N115        N  0.09376218  0.84610046  0.63865835    -0.28500
C116        C  0.10546865  0.84657298  0.63306304    -0.03700
C117        C  0.10377744  0.84639274  0.61984029     0.04900
C118        C  0.09058107  0.84576994  0.61794423     0.03000
H119        H  0.11450826  0.84746252  0.63822472     0.08100
H120        H  0.08553694  0.84596252  0.60880289     0.07000
N121        N  0.10132097  0.79450351  0.80742340    -0.27400
N122        N  0.09936026  0.79222161  0.79503021    -0.35300
C123        C  0.09897845  0.77941394  0.79306553     0.00900
C124        C  0.10090302  0.77324785  0.80475065     0.06900
C125        C  0.10238272  0.78313361  0.81366078    -0.06200
H126        H  0.09720640  0.77490905  0.78381785     0.07600
H127        H  0.10393272  0.78214150  0.82393441     0.08800
Cu128      Cu  0.09711870  0.80649466  0.78125163     0.44200
Cu129      Cu  0.10174842  0.81307484  0.81514884     0.42000
Cu130      Cu  0.09731875  0.83948880  0.79193430     0.43900
N131        N  0.09475639  0.82200251  0.76890662    -0.34800
N132        N  0.09463847  0.83416546  0.77273353    -0.29100
C133        C  0.09242451  0.84178809  0.76242213    -0.05200
C134        C  0.09114383  0.83400469  0.75161079     0.07000
C135        C  0.09273533  0.82153774  0.75610937     0.00800
H136        H  0.09165961  0.85219231  0.76278432     0.08500
H137        H  0.09233447  0.81274615  0.75050206     0.07600
N138        N  0.09963632  0.84206567  0.81174709    -0.36300
N139        N  0.10120057  0.83256139  0.82015645    -0.28500
C140        C  0.10210131  0.83760896  0.83210610    -0.03700
C141        C  0.10105304  0.85089486  0.83116241     0.04900
C142        C  0.09950639  0.85337063  0.81813375     0.03000
H143        H  0.10327563  0.83201659  0.84084850     0.08100
H144        H  0.09826947  0.86271597  0.81363657     0.07000
N145        N  0.64827004  0.94442022  0.80838031    -0.27400
N146        N  0.65018403  0.94830233  0.79639679    -0.35300
C147        C  0.65223120  0.96109233  0.79635574     0.00900
C148        C  0.65133551  0.96559488  0.80890662     0.06900
C149        C  0.64875256  0.95471579  0.81628966    -0.06200
H150        H  0.65448144  0.96667701  0.78781916     0.07600
H151        H  0.64761730  0.95424416  0.82665417     0.08800
Cu152      Cu  0.65035730  0.93595405  0.78071849     0.44200
Cu153      Cu  0.64705771  0.92505707  0.81315747     0.42000
Cu154      Cu  0.65336769  0.90181563  0.78690669     0.43900
N155        N  0.65187464  0.92228239  0.76625518    -0.34800
N156        N  0.65363355  0.90982656  0.76837500    -0.29100
C157        C  0.65558097  0.90390745  0.75694928    -0.05200
C158        C  0.65488547  0.91308623  0.74718200     0.07000
C159        C  0.65238528  0.92458227  0.75350353     0.00800
H160        H  0.65765190  0.89373450  0.75585344     0.08500
H161        H  0.65138277  0.93403228  0.74917842     0.07600
N162        N  0.65214556  0.89697089  0.80647382    -0.36300
N163        N  0.64972854  0.90541442  0.81576004    -0.28500
C164        C  0.65012408  0.89937549  0.82722569    -0.03700
C165        C  0.65288284  0.88652724  0.82513251     0.04900
C166        C  0.65407463  0.88528004  0.81187758     0.03000
H167        H  0.64878144  0.90406517  0.83645616     0.08100
H168        H  0.65645995  0.87660124  0.80659134     0.07000
N169        N  0.70376498  0.07494541  0.82135501    -0.27400
N170        N  0.70585002  0.06260379  0.81888557    -0.35300
C171        C  0.71854799  0.06069275  0.81707250     0.00900
C172        C  0.72484948  0.07234682  0.81861223     0.06900
C173        C  0.71517406  0.08119413  0.82133026    -0.06200
H174        H  0.72287958  0.05146653  0.81480598     0.07600
H175        H  0.71633196  0.09141358  0.82310923     0.08800
Cu176      Cu  0.69164206  0.04861664  0.81868460     0.44200
Cu177      Cu  0.68540432  0.08264696  0.82418491     0.42000
Cu178      Cu  0.65940534  0.05890406  0.82573618     0.43900
N179        N  0.67633493  0.03597534  0.82057790    -0.34800
N180        N  0.66445780  0.03969242  0.82339280    -0.29100
C181        C  0.65672066  0.02926112  0.82371038    -0.05200
C182        C  0.66412236  0.01848692  0.82091806     0.07000
C183        C  0.67649938  0.02311172  0.81899981     0.00800
H184        H  0.64642228  0.02954072  0.82547619     0.08500
H185        H  0.68493833  0.01757007  0.81629142     0.07600
N186        N  0.65655691  0.07869545  0.82646398    -0.36300
N187        N  0.66591400  0.08737657  0.82576637    -0.28500
C188        C  0.66061224  0.09924945  0.82564574    -0.03700
C189        C  0.64732937  0.09791615  0.82637163     0.04900
C190        C  0.64510329  0.08479127  0.82686920     0.03000
H191        H  0.66599119  0.10815921  0.82475331     0.08100
H192        H  0.63581375  0.08000733  0.82705305     0.07000
N193        N  0.80049646  0.08332069  0.81145159    -0.27400
N194        N  0.79806379  0.07970333  0.79947031    -0.35300
C195        C  0.78550316  0.07664007  0.79841862     0.00900
C196        C  0.77970648  0.07849529  0.81029095     0.06900
C197        C  0.78949387  0.08269324  0.81836339    -0.06200
H198        H  0.78080480  0.07385219  0.78952147     0.07600
H199        H  0.78857288  0.08558750  0.82835247     0.08800
Cu200      Cu  0.81139651  0.08090596  0.78466691     0.44200
Cu201      Cu  0.81850570  0.08991077  0.81727737     0.42000
Cu202      Cu  0.84186977  0.09661987  0.79162530     0.43900
N203        N  0.82476901  0.08577916  0.77066183    -0.34800
N204        N  0.83572156  0.09191101  0.77300680    -0.29100
C205        C  0.84182217  0.09404306  0.76170450    -0.05200
C206        C  0.83433683  0.08896494  0.75182457     0.07000
C207        C  0.82363453  0.08378502  0.75790157     0.00800
H208        H  0.85103734  0.09886788  0.76074803     0.08500
H209        H  0.81559047  0.07890087  0.75337281     0.07600
N210        N  0.84580674  0.09862006  0.81130857    -0.36300
N211        N  0.83732348  0.09604204  0.82052587    -0.28500
C212        C  0.84306659  0.09740471  0.83208666    -0.03700
C213        C  0.85575700  0.10103652  0.83009980     0.04900
C214        C  0.85717984  0.10173269  0.81682493     0.03000
H215        H  0.83844797  0.09551691  0.84126555     0.08100
H216        H  0.86595838  0.10387105  0.81156969     0.07000
N217        N  0.69974137  0.90210632  0.63281106    -0.27400
N218        N  0.70300891  0.90486181  0.64482367    -0.35300
C219        C  0.71563320  0.90789589  0.64516495     0.00900
C220        C  0.72059413  0.90688990  0.63278830     0.06900
C221        C  0.71023300  0.90316660  0.62520617    -0.06200
H222        H  0.72081336  0.91071085  0.65378024     0.07600
H223        H  0.71028301  0.90145951  0.61490796     0.08800
Cu224      Cu  0.69008711  0.90443517  0.66015782     0.44200
Cu225      Cu  0.68096410  0.89788567  0.62732359     0.42000
Cu226      Cu  0.65619398  0.90102798  0.65226155     0.43900
N227        N  0.67541786  0.90441017  0.67384363    -0.34800
N228        N  0.66298830  0.90382560  0.67099317    -0.29100
C229        C  0.65608607  0.90501377  0.68196579    -0.05200
C230        C  0.66459055  0.90622841  0.69225439     0.07000
C231        C  0.67675455  0.90569543  0.68668086     0.00800
H232        H  0.64564900  0.90514625  0.68239015     0.08500
H233        H  0.68594321  0.90640918  0.69158977     0.07600
N234        N  0.65230257  0.89713557  0.63290386    -0.36300
N235        N  0.66133017  0.89589403  0.62393809    -0.28500
C236        C  0.65564653  0.89402117  0.61242173    -0.03700
C237        C  0.64242235  0.89404380  0.61421072     0.04900
C238        C  0.64062361  0.89603038  0.62729244     0.03000
H239        H  0.66075266  0.89317453  0.60334718     0.08100
H240        H  0.63149853  0.89707123  0.63227761     0.07000
N241        N  0.79462673  0.91812344  0.61549141    -0.27400
N242        N  0.79153337  0.93040258  0.61700440    -0.35300
C243        C  0.77877978  0.93130184  0.61928108     0.00900
C244        C  0.77352609  0.91901116  0.61904846     0.06900
C245        C  0.78387063  0.91090612  0.61652171    -0.06200
H246        H  0.77377213  0.94021829  0.62139879     0.07600
H247        H  0.78368383  0.90048303  0.61595443     0.08800
Cu248      Cu  0.80489015  0.94531005  0.61684666     0.44200
Cu249      Cu  0.81354098  0.91166504  0.61404691     0.42000
Cu250      Cu  0.83813877  0.93596727  0.62070083     0.43900
N251        N  0.81985041  0.95843719  0.61890101    -0.34800
N252        N  0.83194288  0.95501144  0.62109287    -0.29100
C253        C  0.83895447  0.96564853  0.62362396    -0.05200
C254        C  0.83090634  0.97631427  0.62287473     0.07000
C255        C  0.81889112  0.97134859  0.61970838     0.00800
H256        H  0.84906937  0.96558244  0.62623337     0.08500
H257        H  0.80997481  0.97667035  0.61860606     0.07600
N258        N  0.84200084  0.91646737  0.61822563    -0.36300
N259        N  0.83312888  0.90767805  0.61554275    -0.28500
C260        C  0.83886740  0.89607327  0.61450787    -0.03700
C261        C  0.85196144  0.89764546  0.61666198     0.04900
C262        C  0.85360045  0.91068366  0.61897768     0.03000
H263        H  0.83386085  0.88713800  0.61247142     0.08100
H264        H  0.86256228  0.91559107  0.62116589     0.07000
N265        N  0.84723363  0.04985375  0.63703597    -0.27400
N266        N  0.84771038  0.04614917  0.64923103    -0.35300
C267        C  0.84629075  0.03325928  0.64979650     0.00900
C268        C  0.84464194  0.02863322  0.63736257     0.06900
C269        C  0.84534895  0.03943763  0.62951997    -0.06200
H270        H  0.84578119  0.02774638  0.65865377     0.07600
H271        H  0.84393427  0.03978308  0.61918047     0.08800
Cu272      Cu  0.84808344  0.05901777  0.66456557     0.44200
Cu273      Cu  0.84781646  0.06905657  0.63143989     0.42000
Cu274      Cu  0.84585046  0.09322697  0.65695822     0.43900
N275        N  0.84598721  0.07340503  0.67834380    -0.34800
N276        N  0.84514547  0.08586702  0.67568361    -0.29100
C277        C  0.84354870  0.09242658  0.68680200    -0.05200
C278        C  0.84332980  0.08365095  0.69691065     0.07000
C279        C  0.84487525  0.07170822  0.69115839     0.00800
H280        H  0.84255769  0.10279961  0.68747320     0.08500
H281        H  0.84502661  0.06242380  0.69594386     0.07600
N282        N  0.84675013  0.09762050  0.63733149    -0.36300
N283        N  0.84755246  0.08879527  0.62814012    -0.28500
C284        C  0.84807485  0.09471030  0.61659450    -0.03700
C285        C  0.84758564  0.10788830  0.61857654     0.04900
C286        C  0.84673016  0.10940512  0.63182867     0.03000
H287        H  0.84876079  0.08977536  0.60742136     0.08100
H288        H  0.84622891  0.11841242  0.63707947     0.07000
N289        N  0.79418281  0.83455571  0.06779549    -0.27400
N290        N  0.79195836  0.82202593  0.06708935    -0.35300
C291        C  0.77919223  0.81996456  0.06611989     0.00900
C292        C  0.77304375  0.83178510  0.06629908     0.06900
C293        C  0.78282759  0.84084070  0.06740339    -0.06200
H294        H  0.77476355  0.81058829  0.06487274     0.07600
H295        H  0.78179493  0.85123407  0.06741066     0.08800
Cu296      Cu  0.80638427  0.80843526  0.06641923     0.44200
Cu297      Cu  0.81267825  0.84228608  0.06779131     0.42000
Cu298      Cu  0.83945118  0.81928109  0.06432491     0.43900
N299        N  0.82184231  0.79617846  0.06437886    -0.34800
N300        N  0.83399809  0.79993960  0.06332776    -0.29100
C301        C  0.84143134  0.78945808  0.06128308    -0.05200
C302        C  0.83349072  0.77867427  0.06108066     0.07000
C303        C  0.82118273  0.78331944  0.06315030     0.00800
H304        H  0.85177956  0.78968681  0.05981813     0.08500
H305        H  0.81232586  0.77777686  0.06347571     0.07600
N306        N  0.84163333  0.83928311  0.06482859    -0.36300
N307        N  0.83195687  0.84754895  0.06603664    -0.28500
C308        C  0.83662005  0.85965526  0.06535241    -0.03700
C309        C  0.84985082  0.85900371  0.06364876     0.04900
C310        C  0.85270190  0.84595176  0.06338995     0.03000
H311        H  0.83076813  0.86829593  0.06576565     0.08100
H312        H  0.86211058  0.84162282  0.06200538     0.07000
N313        N  0.79999898  0.64622267  0.88460386    -0.27400
N314        N  0.79603686  0.64655332  0.89673278    -0.35300
C315        C  0.78315594  0.64807697  0.89696988     0.00900
C316        C  0.77874683  0.64875646  0.88440243     0.06900
C317        C  0.78968190  0.64751130  0.87678482    -0.06200
H318        H  0.77747696  0.64921841  0.90566306     0.07600
H319        H  0.79016296  0.64801675  0.86636697     0.08800
Cu320      Cu  0.80826621  0.64674005  0.91252152     0.44200
Cu321      Cu  0.81941040  0.64568450  0.87944988     0.42000
Cu322      Cu  0.84220001  0.65024302  0.90596491     0.43900
N323        N  0.82189708  0.64990128  0.92676751    -0.34800
N324        N  0.83435136  0.65140286  0.92437893    -0.29100
C325        C  0.84047885  0.65411989  0.93550107    -0.05200
C326        C  0.83142055  0.65433222  0.94532848     0.07000
C327        C  0.81975173  0.65159874  0.93945231     0.00800
H328        H  0.85071450  0.65604722  0.93633779     0.08500
H329        H  0.81036087  0.65113608  0.94401498     0.07600
N330        N  0.84752292  0.64919419  0.88665705    -0.36300
N331        N  0.83928088  0.64749173  0.87704468    -0.28500
C332        C  0.84580251  0.64781647  0.86580759    -0.03700
C333        C  0.85873646  0.64979315  0.86849138     0.04900
C334        C  0.85949323  0.65060889  0.88178293     0.03000
H335        H  0.84142512  0.64692773  0.85637084     0.08100
H336        H  0.86806948  0.65238511  0.88747355     0.07000
N337        N  0.66683350  0.69884528  0.87903142    -0.27400
N338        N  0.67921625  0.70187389  0.87989871    -0.35300
C339        C  0.68032181  0.71454548  0.88241930     0.00900
C340        C  0.66806268  0.71976762  0.88329674     0.06900
C341        C  0.65972879  0.70954227  0.88108596    -0.06200
H342        H  0.68939357  0.71957096  0.88365785     0.07600
H343        H  0.64928453  0.70982160  0.88113272     0.08800
Cu344      Cu  0.69422775  0.68876694  0.87802706     0.44200
Cu345      Cu  0.66023416  0.68023213  0.87528883     0.42000
Cu346      Cu  0.68540144  0.65681969  0.86795028     0.43900
N347        N  0.70758790  0.67416797  0.87504817    -0.34800
N348        N  0.70442810  0.66262640  0.87066062    -0.29100
C349        C  0.71518595  0.65540013  0.86969170    -0.05200
C350        C  0.72562241  0.66266069  0.87390597     0.07000
C351        C  0.72038816  0.67451671  0.87722765     0.00800
H352        H  0.71532900  0.64546354  0.86650575     0.08500
H353        H  0.72546675  0.68270662  0.88124489     0.07600
N354        N  0.66585470  0.65230538  0.86903351    -0.36300
N355        N  0.65668368  0.66074363  0.87184756    -0.28500
C356        C  0.64529569  0.65449424  0.87264211    -0.03700
C357        C  0.64741778  0.64151781  0.87022688     0.04900
C358        C  0.66054753  0.64049798  0.86797607     0.03000
H359        H  0.63618583  0.65901104  0.87505618     0.08100
H360        H  0.66591147  0.63173986  0.86608515     0.07000
N361        N  0.84311423  0.70331190  0.05643286    -0.27400
N362        N  0.84699816  0.70541429  0.04445940    -0.35300
C363        C  0.84803418  0.71818693  0.04249808     0.00900
C364        C  0.84442014  0.72447430  0.05369944     0.06900
C365        C  0.84142096  0.71473851  0.06236731    -0.06200
H366        H  0.85040467  0.72258446  0.03332817     0.07600
H367        H  0.83763052  0.71588783  0.07202984     0.08800
Cu368      Cu  0.84813197  0.69123109  0.03045730     0.44200
Cu369      Cu  0.83937040  0.68500686  0.06366824     0.42000
Cu370      Cu  0.83752033  0.65955308  0.03945936     0.43900
N371        N  0.84441742  0.67676070  0.01720831    -0.34800
N372        N  0.84005301  0.66522975  0.02047896    -0.29100
C373        C  0.83736693  0.65851135  0.00970937    -0.05200
C374        C  0.84020125  0.66620152  0.99915175     0.07000
C375        C  0.84469550  0.67768519  0.00427192     0.00800
H376        H  0.83331568  0.64888615  0.00957691     0.08500
H377        H  0.84754415  0.68623590  0.99899238     0.07600
N378        N  0.83685331  0.65632393  0.05915480    -0.36300
N379        N  0.83749755  0.66553002  0.06797250    -0.28500
C380        C  0.83756355  0.66007114  0.07975424    -0.03700
C381        C  0.83696297  0.64683030  0.07823452     0.04900
C382        C  0.83649920  0.64478546  0.06507728     0.03000
H383        H  0.83838001  0.66532256  0.08873762     0.08100
H384        H  0.83624658  0.63558206  0.06015950     0.07000
N385        N  0.69794125  0.84519595  0.05851201    -0.27400
N386        N  0.70012021  0.84127741  0.04657496    -0.35300
C387        C  0.71261781  0.83807534  0.04536483     0.00900
C388        C  0.71867502  0.84022663  0.05705008     0.06900
C389        C  0.70907534  0.84473204  0.06519693    -0.06200
H390        H  0.71701752  0.83461550  0.03654939     0.07600
H391        H  0.71011979  0.84757544  0.07518372     0.08800
Cu392      Cu  0.68637016  0.84112795  0.03213227     0.44200
Cu393      Cu  0.67982021  0.85059025  0.06502584     0.42000
Cu394      Cu  0.65483505  0.85262174  0.04007913     0.43900
N395        N  0.67169785  0.84292460  0.01874067    -0.34800
N396        N  0.66012885  0.84750454  0.02154605    -0.29100
C397        C  0.65289640  0.84769066  0.01076121    -0.05200
C398        C  0.66031745  0.84296209  0.00070902     0.07000
C399        C  0.67216007  0.84001282  0.00612684     0.00800
H400        H  0.64300776  0.85101860  0.01027910     0.08500
H401        H  0.68051924  0.83608862  0.00124278     0.07600
N402        N  0.65140798  0.85437475  0.05965411    -0.36300
N403        N  0.66037734  0.85353506  0.06871131    -0.28500
C404        C  0.65466100  0.85407495  0.08035548    -0.03700
C405        C  0.64151042  0.85531897  0.07847959     0.04900
C406        C  0.63977544  0.85549294  0.06528178     0.03000
H407        H  0.65967076  0.85333440  0.08948803     0.08100
H408        H  0.63069270  0.85601231  0.06014444     0.07000
N409        N  0.65863281  0.79501670  0.89170775    -0.27400
N410        N  0.65372815  0.79237493  0.90317674    -0.35300
C411        C  0.65324864  0.77951296  0.90477115     0.00900
C412        C  0.65826236  0.77374387  0.89382183     0.06900
C413        C  0.66158465  0.78388004  0.88573857    -0.06200
H414        H  0.64974227  0.77473164  0.91337348     0.07600
H415        H  0.66592545  0.78321042  0.87626270     0.08800
Cu416      Cu  0.64922613  0.80643231  0.91651532     0.44200
Cu417      Cu  0.66055789  0.81370800  0.88477265     0.42000
Cu418      Cu  0.65134286  0.83990479  0.90646857     0.43900
N419        N  0.64840869  0.82184332  0.92907603    -0.34800
N420        N  0.64880136  0.83409024  0.92552380    -0.29100
C421        C  0.64903652  0.84151280  0.93617748    -0.05200
C422        C  0.64910007  0.83351680  0.94692871     0.07000
C423        C  0.64867531  0.82113107  0.94200414     0.00800
H424        H  0.64980555  0.85192523  0.93608098     0.08500
H425        H  0.64925363  0.81220842  0.94740677     0.07600
N426        N  0.65565080  0.84241641  0.88700468    -0.36300
N427        N  0.65909644  0.83289849  0.87921512    -0.28500
C428        C  0.66047452  0.83755909  0.86717442    -0.03700
C429        C  0.65783665  0.85062144  0.86740467     0.04900
C430        C  0.65482649  0.85340399  0.88010663     0.03000
H431        H  0.66277488  0.83177983  0.85879141     0.08100
H432        H  0.65179966  0.86262743  0.88395030     0.07000
N433        N  0.82118257  0.45759205  0.13446113    -0.27400
N434        N  0.80894495  0.46039393  0.13211690    -0.35300
C435        C  0.80717847  0.47317922  0.13352736     0.00900
C436        C  0.81884902  0.47868463  0.13700155     0.06900
C437        C  0.82749534  0.46850734  0.13753796    -0.06200
H438        H  0.79808632  0.47811129  0.13205502     0.07600
H439        H  0.83767543  0.46902329  0.13984337     0.08800
Cu440      Cu  0.79512116  0.44665707  0.12755621     0.44200
Cu441      Cu  0.82895356  0.43919129  0.13269486     0.42000
Cu442      Cu  0.80669536  0.41380879  0.12410111     0.43900
N443        N  0.78309075  0.43078211  0.12556827    -0.34800
N444        N  0.78732889  0.41880420  0.12435149    -0.29100
C445        C  0.77720278  0.41068224  0.12462895    -0.05200
C446        C  0.76607387  0.41789475  0.12613634     0.07000
C447        C  0.77014748  0.43059214  0.12666920     0.00800
H448        H  0.77794241  0.40026872  0.12442005     0.08500
H449        H  0.76421330  0.43899864  0.12845565     0.07600
N450        N  0.82644022  0.41105014  0.12574249    -0.36300
N451        N  0.83460111  0.42031098  0.12898785    -0.28500
C452        C  0.84661025  0.41537337  0.12949572    -0.03700
C453        C  0.84594904  0.40238006  0.12646311     0.04900
C454        C  0.83301730  0.39997203  0.12414411     0.03000
H455        H  0.85517245  0.42080293  0.13201455     0.08100
H456        H  0.82867720  0.39079275  0.12170522     0.07000
N457        N  0.69369382  0.39515506  0.13799225    -0.27400
N458        N  0.69570936  0.40112759  0.14906768    -0.35300
C459        C  0.70793287  0.40542528  0.14941905     0.00900
C460        C  0.71397957  0.40193618  0.13804853     0.06900
C461        C  0.70466440  0.39541362  0.13100280    -0.06200
H462        H  0.71207444  0.41084736  0.15731766     0.07600
H463        H  0.70570425  0.39137569  0.12143678     0.08800
Cu464      Cu  0.68179617  0.40336628  0.16318886     0.44200
Cu465      Cu  0.67564844  0.38832864  0.13266088     0.42000
Cu466      Cu  0.64930575  0.39398548  0.15597725     0.43900
N467        N  0.66705430  0.40386224  0.17662952    -0.34800
N468        N  0.65505458  0.40026714  0.17417904    -0.29100
C469        C  0.64807185  0.40116838  0.18513140    -0.05200
C470        C  0.65613358  0.40551762  0.19488673     0.07000
C471        C  0.66805840  0.40714920  0.18911907     0.00800
H472        H  0.63798332  0.39857076  0.18600493     0.08500
H473        H  0.67690955  0.41021668  0.19374755     0.07600
N474        N  0.64666182  0.38894422  0.13669606    -0.36300
N475        N  0.65614672  0.38658117  0.12845128    -0.28500
C476        C  0.65111827  0.38474992  0.11663104    -0.03700
C477        C  0.63786212  0.38613486  0.11741912     0.04900
C478        C  0.63536662  0.38872772  0.13027813     0.03000
H479        H  0.65676305  0.38327310  0.10796639     0.08100
H480        H  0.62608635  0.39098219  0.13451985     0.07000
N481        N  0.84587996  0.59212159  0.17701793    -0.27400
N482        N  0.84518624  0.57993681  0.18074887    -0.35300
C483        C  0.84532608  0.57943219  0.19367740     0.00900
C484        C  0.84615248  0.59187031  0.19836652     0.06900
C485        C  0.84652309  0.59971807  0.18754439    -0.06200
H486        H  0.84427866  0.57067674  0.19928043     0.07600
H487        H  0.84674366  0.61015199  0.18733284     0.08800
Cu488      Cu  0.84233107  0.56446843  0.16852146     0.44200
Cu489      Cu  0.84446829  0.59770505  0.15785740     0.42000
Cu490      Cu  0.83514974  0.57194898  0.13562979     0.43900
N491        N  0.83651836  0.55072317  0.15532013    -0.34800
N492        N  0.83352946  0.55352537  0.14324676    -0.29100
C493        C  0.82966133  0.54269561  0.13723909    -0.05200
C494        C  0.83029629  0.53260175  0.14597312     0.07000
C495        C  0.83468912  0.53803377  0.15733936     0.00800
H496        H  0.82666146  0.54219327  0.12725424     0.08500
H497        H  0.83642256  0.53313575  0.16639430     0.07600
N498        N  0.83819732  0.59095681  0.13018694    -0.36300
N499        N  0.84157099  0.60028536  0.13822793    -0.28500
C500        C  0.84248154  0.61142749  0.13162971    -0.03700
C501        C  0.83960286  0.60894111  0.11886374     0.04900
C502        C  0.83692971  0.59590717  0.11825271     0.03000
H503        H  0.84489837  0.62066800  0.13583713     0.08100
H504        H  0.83407437  0.59046737  0.10981762     0.07000
N505        N  0.70679180  0.58545229  0.32161029    -0.27400
N506        N  0.70980631  0.57310330  0.32275422    -0.35300
C507        C  0.72272779  0.57184775  0.32251431     0.00900
C508        C  0.72814861  0.58397990  0.32120108     0.06900
C509        C  0.71775260  0.59238992  0.32073877    -0.06200
H510        H  0.72778835  0.56271345  0.32261251     0.07600
H511        H  0.71811198  0.60271952  0.31926859     0.08800
Cu512      Cu  0.69638876  0.55827730  0.32280352     0.44200
Cu513      Cu  0.68796346  0.59213229  0.31952962     0.42000
Cu514      Cu  0.66370246  0.56736615  0.31463683     0.43900
N515        N  0.68187625  0.54502455  0.31914083    -0.34800
N516        N  0.67003894  0.54831980  0.31567629    -0.29100
C517        C  0.66328346  0.53754323  0.31302423    -0.05200
C518        C  0.67123246  0.52696072  0.31498733     0.07000
C519        C  0.68293951  0.53208668  0.31890015     0.00800
H520        H  0.65336157  0.53741949  0.30976401     0.08500
H521        H  0.69165927  0.52681645  0.32119099     0.07600
N522        N  0.65965606  0.58705544  0.31472510    -0.36300
N523        N  0.66850885  0.59610056  0.31646427    -0.28500
C524        C  0.66275723  0.60775814  0.31617589    -0.03700
C525        C  0.64966424  0.60594817  0.31420842     0.04900
C526        C  0.64803296  0.59271961  0.31335374     0.03000
H527        H  0.66769502  0.61685510  0.31753659     0.08100
H528        H  0.63903672  0.58759080  0.31199651     0.07000
N529        N  0.80354458  0.59678530  0.31202034    -0.27400
N530        N  0.80121540  0.59184494  0.30049810    -0.35300
C531        C  0.78863252  0.58882711  0.29962076     0.00900
C532        C  0.78260155  0.59224181  0.31103909     0.06900
C533        C  0.79238452  0.59726484  0.31869470    -0.06200
H534        H  0.78414744  0.58469109  0.29114958     0.07600
H535        H  0.79144276  0.60112284  0.32834827     0.08800
Cu536      Cu  0.81466111  0.59103110  0.28575587     0.44200
Cu537      Cu  0.82192559  0.60236417  0.31800642     0.42000
Cu538      Cu  0.84594006  0.60444494  0.29246020     0.43900
N539        N  0.82814871  0.59508915  0.27158851    -0.34800
N540        N  0.83947408  0.60045543  0.27399097    -0.29100
C541        C  0.84568689  0.60247457  0.26277006    -0.05200
C542        C  0.83789336  0.59812393  0.25284104     0.07000
C543        C  0.82686010  0.59349111  0.25878554     0.00800
H544        H  0.85519843  0.60672607  0.26191040     0.08500
H545        H  0.81850527  0.58926934  0.25414421     0.07600
N546        N  0.85021218  0.60641266  0.31187811    -0.36300
N547        N  0.84150735  0.60573925  0.32121246    -0.28500
C548        C  0.84755114  0.60688756  0.33265559    -0.03700
C549        C  0.86064430  0.60830862  0.33037036     0.04900
C550        C  0.86199453  0.60796456  0.31711535     0.03000
H551        H  0.84281637  0.60641648  0.34195449     0.08100
H552        H  0.87090464  0.60857467  0.31168424     0.07000
N553        N  0.65419931  0.45236634  0.30764361    -0.27400
N554        N  0.65316533  0.45540186  0.29529123    -0.35300
C555        C  0.65502101  0.46816110  0.29385210     0.00900
C556        C  0.65750927  0.47346085  0.30584473     0.06900
C557        C  0.65687264  0.46316470  0.31439021    -0.06200
H558        H  0.65502141  0.47314860  0.28467641     0.07600
H559        H  0.65863231  0.46344072  0.32467501     0.08800
Cu560      Cu  0.65062342  0.44197915  0.28069578     0.44200
Cu561      Cu  0.65248581  0.43345971  0.31439426     0.42000
Cu562      Cu  0.64708577  0.40857045  0.28980234     0.43900
N563        N  0.64905780  0.42708807  0.26744238    -0.34800
N564        N  0.64732995  0.41487206  0.27068789    -0.29100
C565        C  0.64679519  0.40770103  0.25985878    -0.05200
C566        C  0.64847414  0.41577813  0.24928801     0.07000
C567        C  0.64989630  0.42799020  0.25452459     0.00800
H568        H  0.64556523  0.39733888  0.25971408     0.08500
H569        H  0.65171848  0.43686844  0.24932963     0.07600
N570        N  0.64859006  0.40481969  0.30952736    -0.36300
N571        N  0.65044695  0.41381333  0.31840346    -0.28500
C572        C  0.65100731  0.40813293  0.33008538    -0.03700
C573        C  0.64951378  0.39493401  0.32852564     0.04900
C574        C  0.64802479  0.39320135  0.31535072     0.03000
H575        H  0.65245391  0.41323529  0.33907478     0.08100
H576        H  0.64673824  0.38413291  0.31034433     0.07000
N577        N  0.84642544  0.20602617  0.56025803    -0.27400
N578        N  0.84782118  0.20907925  0.54794841    -0.35300
C579        C  0.84632220  0.22185453  0.54649283     0.00900
C580        C  0.84357993  0.22718302  0.55839911     0.06900
C581        C  0.84377075  0.21686219  0.56695319    -0.06200
H582        H  0.84670545  0.22683839  0.53732039     0.07600
H583        H  0.84173138  0.21714789  0.57718984     0.08800
Cu584      Cu  0.84992624  0.19585986  0.53322051     0.44200
Cu585      Cu  0.84771684  0.18707223  0.56691711     0.42000
Cu586      Cu  0.85127590  0.16249709  0.54147083     0.43900
N587        N  0.85008212  0.18138390  0.51955602    -0.34800
N588        N  0.85080114  0.16900197  0.52249654    -0.29100
C589        C  0.85030987  0.16205411  0.51152929    -0.05200
C590        C  0.84909427  0.17051572  0.50121752     0.07000
C591        C  0.84896350  0.18267821  0.50670576     0.00800
H592        H  0.85050380  0.15162435  0.51111640     0.08500
H593        H  0.84779809  0.19179673  0.50174434     0.07600
N594        N  0.85045049  0.15847874  0.56111883    -0.36300
N595        N  0.84919575  0.16727649  0.57029926    -0.28500
C596        C  0.84868299  0.16126835  0.58181746    -0.03700
C597        C  0.84962187  0.14809667  0.57978357     0.04900
C598        C  0.85072549  0.14668751  0.56656322     0.03000
H599        H  0.84755315  0.16611581  0.59099412     0.08100
H600        H  0.85146255  0.13772396  0.56126327     0.07000
N601        N  0.79369061  0.33838867  0.57426352    -0.27400
N602        N  0.79110275  0.32594174  0.57333233    -0.35300
C603        C  0.77825488  0.32425113  0.57281878     0.00900
C604        C  0.77237563  0.33620259  0.57357547     0.06900
C605        C  0.78247238  0.34496978  0.57453499    -0.06200
H606        H  0.77354652  0.31501491  0.57155201     0.07600
H607        H  0.78173081  0.35537465  0.57498642     0.08800
Cu608      Cu  0.80509505  0.31185023  0.57204571     0.44200
Cu609      Cu  0.81249643  0.34552666  0.57386277     0.42000
Cu610      Cu  0.83827608  0.32163318  0.56835880     0.43900
N611        N  0.82011270  0.29902020  0.56961912    -0.34800
N612        N  0.83227215  0.30245918  0.56781184    -0.29100
C613        C  0.83939322  0.29175638  0.56582626    -0.05200
C614        C  0.83127620  0.28112114  0.56650450     0.07000
C615        C  0.81915966  0.28611983  0.56898984     0.00800
H616        H  0.84966052  0.29172396  0.56388747     0.08500
H617        H  0.81024145  0.28078327  0.57004642     0.07600
N618        N  0.84135346  0.34138595  0.57050694    -0.36300
N619        N  0.83208009  0.34997358  0.57247781    -0.28500
C620        C  0.83743122  0.36176652  0.57357952    -0.03700
C621        C  0.85065748  0.36052209  0.57229764     0.04900
C622        C  0.85282774  0.34750653  0.57037205     0.03000
H623        H  0.83209797  0.37057771  0.57529990     0.08100
H624        H  0.86207121  0.34282140  0.56903719     0.07000
N625        N  0.69664369  0.34577569  0.56434622    -0.27400
N626        N  0.69970104  0.34176406  0.55263287    -0.35300
C627        C  0.71239502  0.33912183  0.55225152     0.00900
C628        C  0.71764179  0.34174267  0.56424965     0.06900
C629        C  0.70735816  0.34590497  0.57171586    -0.06200
H630        H  0.71754860  0.33605728  0.54370216     0.07600
H631        H  0.70771301  0.34921592  0.58160700     0.08800
Cu632      Cu  0.68693576  0.34170909  0.53719175     0.44200
Cu633      Cu  0.67809291  0.35136366  0.56931556     0.42000
Cu634      Cu  0.65543720  0.35547007  0.54256055     0.43900
N635        N  0.67354840  0.34480364  0.52259868    -0.34800
N636        N  0.66212347  0.35018397  0.52448366    -0.29100
C637        C  0.65590503  0.35106302  0.51311059    -0.05200
C638        C  0.66382625  0.34600168  0.50362466     0.07000
C639        C  0.67491738  0.34212556  0.50998016     0.00800
H640        H  0.64633487  0.35506967  0.51184667     0.08500
H641        H  0.68337985  0.33771425  0.50572674     0.07600
N642        N  0.65034565  0.35660515  0.56185161    -0.36300
N643        N  0.65853269  0.35494319  0.57151570    -0.28500
C644        C  0.65187857  0.35447883  0.58264100    -0.03700
C645        C  0.63892630  0.35592574  0.57982801     0.04900
C646        C  0.63826707  0.35727216  0.56659061     0.03000
H647        H  0.65607411  0.35247145  0.59198840     0.08100
H648        H  0.62961058  0.35782413  0.56077299     0.07000
N649        N  0.70650914  0.16646264  0.37839480    -0.27400
N650        N  0.70933619  0.17851884  0.38144041    -0.35300
C651        C  0.72218487  0.17969030  0.38272975     0.00900
C652        C  0.72776149  0.16781405  0.38035243     0.06900
C653        C  0.71754341  0.15962398  0.37761660    -0.06200
H654        H  0.72710058  0.18850341  0.38541506     0.07600
H655        H  0.71806887  0.14943151  0.37542820     0.08800
Cu656      Cu  0.69571228  0.19289307  0.38379586     0.44200
Cu657      Cu  0.68766808  0.16000879  0.37609592     0.42000
Cu658      Cu  0.66233975  0.18460015  0.37865596     0.43900
N659        N  0.68089701  0.20624196  0.38425452    -0.34800
N660        N  0.66867114  0.20338265  0.38196569    -0.29100
C661        C  0.66165976  0.21432504  0.38237033    -0.05200
C662        C  0.66988642  0.22452346  0.38514102     0.07000
C663        C  0.68198558  0.21899069  0.38632191     0.00800
H664        H  0.65134751  0.21482633  0.38073631     0.08500
H665        H  0.69096145  0.22388932  0.38846726     0.07600
N666        N  0.65884003  0.16497624  0.37607750    -0.36300
N667        N  0.66801416  0.15612880  0.37511734    -0.28500
C668        C  0.66250140  0.14447073  0.37361224    -0.03700
C669        C  0.64924250  0.14603519  0.37363049     0.04900
C670        C  0.64725094  0.15914415  0.37521504     0.03000
H671        H  0.66776035  0.13550612  0.37258574     0.08100
H672        H  0.63805195  0.16407136  0.37575327     0.07000
N673        N  0.80321633  0.15696971  0.38848363    -0.27400
N674        N  0.80048190  0.16096099  0.40028118    -0.35300
C675        C  0.78773056  0.16320927  0.40114522     0.00900
C676        C  0.78217685  0.16046995  0.38932547     0.06900
C677        C  0.79226808  0.15654958  0.38150421    -0.06200
H678        H  0.78283744  0.16647282  0.40977514     0.07600
H679        H  0.79168498  0.15351332  0.37153401     0.08800
Cu680      Cu  0.81412330  0.16257951  0.41479780     0.44200
Cu681      Cu  0.82175000  0.15236333  0.38263511     0.42000
Cu682      Cu  0.84696924  0.15332262  0.40733378     0.43900
N683        N  0.82877184  0.16179450  0.42837498    -0.34800
N684        N  0.84071207  0.15805437  0.42582834    -0.29100
C685        C  0.84755485  0.15802102  0.43688562    -0.05200
C686        C  0.83951971  0.16198560  0.44683388     0.07000
C687        C  0.82771857  0.16433972  0.44104218     0.00800
H688        H  0.85759499  0.15523431  0.43764239     0.08500
H689        H  0.81895027  0.16756048  0.44572268     0.07600
N690        N  0.85039199  0.15007506  0.38780293    -0.36300
N691        N  0.84120342  0.14970175  0.37893313    -0.28500
C692        C  0.84664182  0.14834308  0.36723420    -0.03700
C693        C  0.85986928  0.14782744  0.36879935     0.04900
C694        C  0.86194145  0.14894498  0.38193538     0.03000
H695        H  0.84138311  0.14826435  0.35821357     0.08100
H696        H  0.87117204  0.14945078  0.38680256     0.07000
N697        N  0.65650965  0.29992713  0.39145881    -0.27400
N698        N  0.65938767  0.29759192  0.40366442    -0.35300
C699        C  0.66148156  0.28488889  0.40522549     0.00900
C700        C  0.65979059  0.27886829  0.39344959     0.06900
C701        C  0.65663671  0.28869585  0.38491691    -0.06200
H702        H  0.66415746  0.28037827  0.41425760     0.07600
H703        H  0.65472627  0.28776627  0.37470035     0.08800
Cu704      Cu  0.66004950  0.31166476  0.41775790     0.44200
Cu705      Cu  0.65306703  0.31846210  0.38444284     0.42000
Cu706      Cu  0.65272135  0.34441266  0.40855113     0.43900
N707        N  0.65827377  0.32658230  0.43085318    -0.34800
N708        N  0.65541211  0.33860437  0.42766189    -0.29100
C709        C  0.65470642  0.34574279  0.43851854    -0.05200
C710        C  0.65722345  0.33776174  0.44897328     0.07000
C711        C  0.65945936  0.32572018  0.44373143     0.00800
H712        H  0.65254207  0.35595029  0.43878930     0.08500
H713        H  0.66180512  0.31695725  0.44891049     0.07600
N714        N  0.65103689  0.34736428  0.38867758    -0.36300
N715        N  0.65108460  0.33798684  0.37999915    -0.28500
C716        C  0.65032259  0.34322152  0.36811945    -0.03700
C717        C  0.64979427  0.35650616  0.36935176     0.04900
C718        C  0.65026951  0.35879003  0.38250943     0.03000
H719        H  0.65050984  0.33777694  0.35921551     0.08100
H720        H  0.65032891  0.36809754  0.38723538     0.07000
N721        N  0.54202077  0.35105731  0.63962252    -0.27400
N722        N  0.53906163  0.34894570  0.65184962    -0.35300
C723        C  0.52618616  0.34763802  0.65291781     0.00900
C724        C  0.52080626  0.34904043  0.64077712     0.06900
C725        C  0.53112016  0.35127108  0.63258982    -0.06200
H726        H  0.52116812  0.34524901  0.66176543     0.07600
H727        H  0.53078910  0.35232345  0.62220743     0.08800
Cu728      Cu  0.55277267  0.34662764  0.66621146     0.44200
Cu729      Cu  0.56075170  0.35157357  0.63279838     0.42000
Cu730      Cu  0.58583056  0.34253618  0.65559888     0.43900
N731        N  0.56805170  0.34283407  0.67853056    -0.34800
N732        N  0.58005371  0.34084722  0.67465680    -0.29100
C733        C  0.58734024  0.33760267  0.68491157    -0.05200
C734        C  0.57953374  0.33763440  0.69576103     0.07000
C735        C  0.56740167  0.34107020  0.69135086     0.00800
H736        H  0.59747491  0.33511110  0.68444366     0.08500
H737        H  0.55864579  0.34184560  0.69699856     0.07600
N738        N  0.58911287  0.34610374  0.63620627    -0.36300
N739        N  0.57999141  0.34952804  0.62795582    -0.28500
C740        C  0.58532940  0.35148809  0.61629485    -0.03700
C741        C  0.59843475  0.34923473  0.61729213     0.04900
C742        C  0.60052147  0.34582915  0.63001778     0.03000
H743        H  0.58008617  0.35448623  0.60777764     0.08100
H744        H  0.60968255  0.34357703  0.63450262     0.07000
N745        N  0.60071720  0.29024638  0.80793665    -0.27400
N746        N  0.59750398  0.28702213  0.79602595    -0.35300
C747        C  0.59527557  0.27427928  0.79551977     0.00900
C748        C  0.59735491  0.26910549  0.80764052     0.06900
C749        C  0.60081758  0.27952087  0.81530256    -0.06200
H750        H  0.59222490  0.26915962  0.78694883     0.07600
H751        H  0.60305955  0.27935392  0.82549725     0.08800
Cu752      Cu  0.59601560  0.29986442  0.78085872     0.44200
Cu753      Cu  0.60352630  0.30929439  0.81360264     0.42000
Cu754      Cu  0.59624948  0.33337782  0.78865074     0.43900
N755        N  0.59375875  0.31418719  0.76719641    -0.34800
N756        N  0.59326878  0.32657720  0.77011407    -0.29100
C757        C  0.59103287  0.33338813  0.75929048    -0.05200
C758        C  0.59025101  0.32484878  0.74903792     0.07000
C759        C  0.59208150  0.31276258  0.75442614     0.00800
H760        H  0.59004798  0.34377645  0.75891910     0.08500
H761        H  0.59211707  0.30358852  0.74944856     0.07600
N762        N  0.60036230  0.33776043  0.80770639    -0.36300
N763        N  0.60307691  0.32912503  0.81673166    -0.28500
C764        C  0.60457097  0.33525268  0.82807977    -0.03700
C765        C  0.60275795  0.34832009  0.82604481     0.04900
C766        C  0.60012303  0.34957487  0.81305142     0.03000
H767        H  0.60644168  0.33051635  0.83719928     0.08100
H768        H  0.59778154  0.35837676  0.80793590     0.07000
N769        N  0.58742406  0.19398860  0.81960986    -0.27400
N770        N  0.57518785  0.19730772  0.81818212    -0.35300
C771        C  0.57440098  0.21021569  0.81709559     0.00900
C772        C  0.58674099  0.21529220  0.81795223     0.06900
C773        C  0.59475618  0.20471346  0.81960311    -0.06200
H774        H  0.56554083  0.21549231  0.81542600     0.07600
H775        H  0.60517286  0.20477552  0.82038791     0.08800
Cu776      Cu  0.56027490  0.18401763  0.81716918     0.44200
Cu777      Cu  0.59349273  0.17493541  0.82051415     0.42000
Cu778      Cu  0.56867956  0.14995956  0.81840918     0.43900
N779        N  0.54696111  0.16918629  0.81550926    -0.34800
N780        N  0.54991268  0.15676789  0.81576948    -0.29100
C781        C  0.53908143  0.14984802  0.81370650    -0.05200
C782        C  0.52886625  0.15834922  0.81210583     0.07000
C783        C  0.53423304  0.17049839  0.81336580     0.00800
H784        H  0.53871622  0.13943108  0.81312977     0.08500
H785        H  0.52928177  0.17965409  0.81251295     0.07600
N786        N  0.58835485  0.14617765  0.82048312    -0.36300
N787        N  0.59730684  0.15528744  0.82103697    -0.28500
C788        C  0.60899654  0.14972666  0.82208846    -0.03700
C789        C  0.60733352  0.13651046  0.82227308     0.04900
C790        C  0.59415169  0.13456117  0.82125466     0.03000
H791        H  0.61803853  0.15492648  0.82272075     0.08100
H792        H  0.58916068  0.12538852  0.82101551     0.07000
N793        N  0.45343473  0.14847643  0.80250168    -0.27400
N794        N  0.45656066  0.14468320  0.79073306    -0.35300
C795        C  0.46948007  0.14468278  0.78952496     0.00900
C796        C  0.47481268  0.14886634  0.80102267     0.06900
C797        C  0.46433705  0.15117074  0.80905032    -0.06200
H798        H  0.47459454  0.14224130  0.78075729     0.07600
H799        H  0.46460794  0.15480854  0.81882934     0.08800
Cu800      Cu  0.44329622  0.14184911  0.77611667     0.44200
Cu801      Cu  0.43441227  0.14989854  0.80885866     0.42000
Cu802      Cu  0.41001191  0.14862917  0.78372342     0.43900
N803        N  0.42936879  0.14528555  0.76225846    -0.34800
N804        N  0.41729235  0.14838037  0.76500408    -0.29100
C805        C  0.41121602  0.15170409  0.75401236    -0.05200
C806        C  0.41989121  0.15060136  0.74387746     0.07000
C807        C  0.43128073  0.14644292  0.74947642     0.00800
H808        H  0.40132778  0.15503487  0.75347826     0.08500
H809        H  0.44042340  0.14483415  0.74468670     0.07600
N810        N  0.40576638  0.14842194  0.80335595    -0.36300
N811        N  0.41465338  0.14907370  0.81250942    -0.28500
C812        C  0.40879008  0.14874038  0.82410630    -0.03700
C813        C  0.39560593  0.14779222  0.82215290     0.04900
C814        C  0.39402509  0.14761172  0.80889785     0.03000
H815        H  0.41375482  0.14910134  0.83328479     0.08100
H816        H  0.38500052  0.14700574  0.80367180     0.07000
N817        N  0.40167726  0.20333293  0.63391112    -0.27400
N818        N  0.40258458  0.20591437  0.64637953    -0.35300
C819        C  0.40323049  0.21876891  0.64801955     0.00900
C820        C  0.40265969  0.22461577  0.63603480     0.06900
C821        C  0.40164877  0.21453603  0.62730146    -0.06200
H822        H  0.40445686  0.22350190  0.65724189     0.07600
H823        H  0.40130406  0.21528174  0.61689145     0.08800
Cu824      Cu  0.40383140  0.19199662  0.66070838     0.44200
Cu825      Cu  0.40158066  0.18463925  0.62644938     0.42000
Cu826      Cu  0.40607315  0.15908562  0.65026209     0.43900
N827        N  0.40642258  0.17666196  0.67329991    -0.34800
N828        N  0.40754985  0.16456112  0.66944735    -0.29100
C829        C  0.40987352  0.15702120  0.67977050    -0.05200
C830        C  0.41016083  0.16476073  0.69065453     0.07000
C831        C  0.40789229  0.17714790  0.68618125     0.00800
H832        H  0.41145103  0.14670778  0.67935749     0.08500
H833        H  0.40757278  0.18590753  0.69185091     0.07600
N834        N  0.40413296  0.15585228  0.63060774    -0.36300
N835        N  0.40255834  0.16505518  0.62188131    -0.28500
C836        C  0.40191321  0.15959124  0.61009770    -0.03700
C837        C  0.40308365  0.14635395  0.61154360     0.04900
C838        C  0.40447038  0.14433825  0.62464459     0.03000
H839        H  0.40075356  0.16485209  0.60115037     0.08100
H840        H  0.40578691  0.13517386  0.62947984     0.07000
N841        N  0.40943384  0.30055597  0.62534427    -0.27400
N842        N  0.42136829  0.29807964  0.62911686    -0.35300
C843        C  0.42260035  0.28535255  0.63125002     0.00900
C844        C  0.41093384  0.27942199  0.62853214     0.06900
C845        C  0.40278984  0.28938478  0.62479656    -0.06200
H846        H  0.43139103  0.28073531  0.63449476     0.07600
H847        H  0.39278793  0.28858504  0.62189987     0.08800
Cu848      Cu  0.43569584  0.31193424  0.63054626     0.44200
Cu849      Cu  0.40284580  0.31919748  0.62182203     0.42000
Cu850      Cu  0.42719515  0.34478281  0.62270700     0.43900
N851        N  0.44899010  0.32681591  0.62954770    -0.34800
N852        N  0.44605653  0.33877060  0.62619550    -0.29100
C853        C  0.45693165  0.34591046  0.62617095    -0.05200
C854        C  0.46716353  0.33807478  0.62981778     0.07000
C855        C  0.46172471  0.32605441  0.63189703     0.00800
H856        H  0.45732743  0.35608087  0.62383684     0.08500
H857        H  0.46665166  0.31739098  0.63502475     0.07600
N858        N  0.40741095  0.34807842  0.62113735    -0.36300
N859        N  0.39862073  0.33880609  0.62075733    -0.28500
C860        C  0.38680799  0.34418985  0.62008003    -0.03700
C861        C  0.38820683  0.35746945  0.62004622     0.04900
C862        C  0.40139363  0.35959195  0.62072746     0.03000
H863        H  0.37784443  0.33883050  0.61972538     0.08100
H864        H  0.40624839  0.36883723  0.62103353     0.07000
N865        N  0.55288253  0.58103527  0.88088802    -0.27400
N866        N  0.54958118  0.56903576  0.88368103    -0.35300
C867        C  0.53667640  0.56840380  0.88504760     0.00900
C868        C  0.53157408  0.58058029  0.88291078     0.06900
C869        C  0.54215245  0.58835616  0.88031203    -0.06200
H870        H  0.53136209  0.55966807  0.88719190     0.07600
H871        H  0.54203951  0.59852069  0.87792562     0.08800
Cu872      Cu  0.56277329  0.55396490  0.88443306     0.44200
Cu873      Cu  0.57186163  0.58657313  0.87759249     0.42000
Cu874      Cu  0.59629313  0.56125318  0.87611434     0.43900
N875        N  0.57720044  0.54013339  0.88286520    -0.34800
N876        N  0.58930720  0.54263036  0.87959860    -0.29100
C877        C  0.59590336  0.53142090  0.87912663    -0.05200
C878        C  0.58755172  0.52142621  0.88226980     0.07000
C879        C  0.57580697  0.52734556  0.88460558     0.00800
H880        H  0.60603011  0.53059704  0.87666759     0.08500
H881        H  0.56687081  0.52268287  0.88737091     0.07600
N882        N  0.60034359  0.58091279  0.87392734    -0.36300
N883        N  0.59138291  0.59000290  0.87457800    -0.28500
C884        C  0.59703404  0.60163458  0.87348362    -0.03700
C885        C  0.61017329  0.59984663  0.87203911     0.04900
C886        C  0.61196929  0.58659530  0.87235999     0.03000
H887        H  0.59198204  0.61075801  0.87404744     0.08100
H888        H  0.62107845  0.58149984  0.87191424     0.07000
N889        N  0.41633168  0.59949092  0.91865326    -0.27400
N890        N  0.42815391  0.59602617  0.92196513    -0.35300
C891        C  0.42867375  0.59418207  0.93477113     0.00900
C892        C  0.41662124  0.59667119  0.93992216     0.06900
C893        C  0.40898587  0.60002643  0.92940681    -0.06200
H894        H  0.43719613  0.59106966  0.93995259     0.07600
H895        H  0.39883162  0.60248683  0.92954587     0.08800
Cu896      Cu  0.44317233  0.59386948  0.90908967     0.44200
Cu897      Cu  0.41116062  0.60240660  0.89937201     0.42000
Cu898      Cu  0.43761637  0.59891545  0.87537874     0.43900
N899        N  0.45770433  0.59320593  0.89551202    -0.34800
N900        N  0.45593065  0.59531872  0.88306250    -0.29100
C901        C  0.46745809  0.59452155  0.87703188    -0.05200
C902        C  0.47685907  0.59174599  0.88619162     0.07000
C903        C  0.47026724  0.59093984  0.89775598     0.00800
H904        H  0.46889789  0.59586101  0.86677540     0.08500
H905        H  0.47431708  0.58885589  0.90715398     0.07600
N906        N  0.41813657  0.60161450  0.87077234    -0.36300
N907        N  0.40872707  0.60300137  0.87934416    -0.28500
C908        C  0.39742175  0.60423640  0.87303161    -0.03700
C909        C  0.39978334  0.60356401  0.85990469     0.04900
C910        C  0.41300412  0.60189316  0.85882350     0.03000
H911        H  0.38811278  0.60529162  0.87766576     0.08100
H912        H  0.41847725  0.60082465  0.84999063     0.07000
N913        N  0.40495884  0.58735831  0.01531081    -0.27400
N914        N  0.40625680  0.57504614  0.01224193    -0.35300
C915        C  0.40744121  0.57403772  0.99934277     0.00900
C916        C  0.40675697  0.58629460  0.99400245     0.06900
C917        C  0.40510931  0.59448353  0.00444317    -0.06200
H918        H  0.40901265  0.56506757  0.99424216     0.07600
H919        H  0.40443757  0.60489789  0.00419590     0.08800
Cu920      Cu  0.40673222  0.56026515  0.02585710     0.44200
Cu921      Cu  0.40449359  0.59399821  0.03421756     0.42000
Cu922      Cu  0.40790269  0.56997480  0.05955104     0.43900
N923        N  0.40712121  0.54731769  0.04123133    -0.34800
N924        N  0.40768842  0.55082012  0.05349241    -0.29100
C925        C  0.40844959  0.54015964  0.06090669    -0.05200
C926        C  0.40832877  0.52942777  0.05294221     0.07000
C927        C  0.40742303  0.53435237  0.04053989     0.00800
H928        H  0.40938417  0.54022308  0.07130288     0.08500
H929        H  0.40732056  0.52890894  0.03163827     0.07600
N930        N  0.40790218  0.58979354  0.06287723    -0.36300
N931        N  0.40646061  0.59851485  0.05365159    -0.28500
C932        C  0.40680543  0.61037613  0.05892956    -0.03700
C933        C  0.40858187  0.60905489  0.07208630     0.04900
C934        C  0.40923851  0.59589548  0.07426897     0.03000
H935        H  0.40584614  0.61929990  0.05358695     0.08100
H936        H  0.41048066  0.59111428  0.08347135     0.07000
N937        N  0.44827554  0.41675300  0.06368824    -0.27400
N938        N  0.45192768  0.42826426  0.06778740    -0.35300
C939        C  0.46489732  0.42903214  0.06722535     0.00900
C940        C  0.46966181  0.41748649  0.06242074     0.06900
C941        C  0.45880878  0.40995018  0.06027473    -0.06200
H942        H  0.47043977  0.43746676  0.06989932     0.07600
H943        H  0.45857279  0.40027064  0.05637445     0.08800
Cu944      Cu  0.43895309  0.44285760  0.07245893     0.44200
Cu945      Cu  0.42909150  0.41089462  0.06300559     0.42000
Cu946      Cu  0.40493010  0.43585646  0.06747500     0.43900
N947        N  0.42465268  0.45691742  0.07157522    -0.34800
N948        N  0.41239535  0.45447863  0.06894146    -0.29100
C949        C  0.40630582  0.46571087  0.06649033    -0.05200
C950        C  0.41513389  0.47571431  0.06769029     0.07000
C951        C  0.42660511  0.46973719  0.07111369     0.00800
H952        H  0.39638378  0.46647327  0.06330452     0.08500
H953        H  0.43593309  0.47430217  0.07227095     0.07600
N954        N  0.40057012  0.41626841  0.06611057    -0.36300
N955        N  0.40940186  0.40721601  0.06429996    -0.28500
C956        C  0.40355527  0.39562198  0.06384608    -0.03700
C957        C  0.39043544  0.39745908  0.06549100     0.04900
C958        C  0.38886202  0.41064543  0.06691148     0.03000
H959        H  0.40849681  0.38652167  0.06252751     0.08100
H960        H  0.37987923  0.41576310  0.06840006     0.07000
N961        N  0.54393889  0.39915817  0.05427839    -0.27400
N962        N  0.54141267  0.39967271  0.04177994    -0.35300
C963        C  0.52884564  0.40248315  0.04008489     0.00900
C964        C  0.52314258  0.40390396  0.05207970     0.06900
C965        C  0.53300459  0.40170364  0.06087039    -0.06200
H966        H  0.52422666  0.40356646  0.03078600     0.07600
H967        H  0.53231828  0.40212111  0.07127885     0.08800
Cu968      Cu  0.55520300  0.39714282  0.02747105     0.44200
Cu969      Cu  0.56232466  0.39535665  0.06158210     0.42000
Cu970      Cu  0.58767624  0.39020667  0.03738161     0.43900
N971        N  0.57042649  0.39501405  0.01462255    -0.34800
N972        N  0.58238482  0.39238824  0.01822767    -0.29100
C973        C  0.59005772  0.39222966  0.00773415    -0.05200
C974        C  0.58253484  0.39491326  0.99702331     0.07000
C975        C  0.57015474  0.39661208  0.00175023     0.00800
H976        H  0.60038554  0.39064981  0.00793061     0.08500
H977        H  0.56165193  0.39922684  0.99627417     0.07600
N978        N  0.59076083  0.38988086  0.05713313    -0.36300
N979        N  0.58168863  0.39186154  0.06591706    -0.28500
C980        C  0.58714295  0.39147033  0.07770348    -0.03700
C981        C  0.60023352  0.38912019  0.07624623     0.04900
C982        C  0.60216674  0.38814070  0.06308645     0.03000
H983        H  0.58199472  0.39294219  0.08667069     0.08100
H984        H  0.61122955  0.38641216  0.05817769     0.07000
N985        N  0.59810242  0.40634393  0.92263997    -0.27400
N986        N  0.59476187  0.41821250  0.92586517    -0.35300
C987        C  0.59220879  0.41858018  0.93857155     0.00900
C988        C  0.59420077  0.40639004  0.94369317     0.06900
C989        C  0.59796573  0.39886700  0.93328061    -0.06200
H990        H  0.58908919  0.42711268  0.94371245     0.07600
H991        H  0.60032938  0.38870181  0.93339496     0.08800
Cu992      Cu  0.59426480  0.43346556  0.91292043     0.44200
Cu993      Cu  0.60158236  0.40097838  0.90366602     0.42000
Cu994      Cu  0.60030736  0.42671978  0.87929139     0.43900
N995        N  0.59567717  0.44765920  0.89887708    -0.34800
N996        N  0.59812686  0.44532188  0.88657539    -0.29100
C997        C  0.59841645  0.45661963  0.88012033    -0.05200
C998        C  0.59598025  0.46651123  0.88880175     0.07000
C999        C  0.59429214  0.46044131  0.90057576     0.00800
H1000       H  0.60008856  0.45755186  0.86985682     0.08500
H1001       H  0.59202440  0.46498255  0.90969801     0.07600
N1002       N  0.60122888  0.40709317  0.87504889    -0.36300
N1003       N  0.60184260  0.39787172  0.88388007    -0.28500
C1004       C  0.60204825  0.38633382  0.87795657    -0.03700
C1005       C  0.60151948  0.38835175  0.86478356     0.04900
C1006       C  0.60101060  0.40161780  0.86326974     0.03000
H1007       H  0.60247221  0.37713470  0.88288734     0.08100
H1008       H  0.60042400  0.40689495  0.85427309     0.07000
N1009       N  0.58177080  0.89883262  0.51829824    -0.27400
N1010       N  0.56975100  0.90203287  0.51544097    -0.35300
C1011       C  0.56892676  0.90441888  0.50271319     0.00900
C1012       C  0.58098784  0.90254066  0.49724402     0.06900
C1013       C  0.58888443  0.89894319  0.50742386    -0.06200
H1014       H  0.56022890  0.90752611  0.49782957     0.07600
H1015       H  0.59910833  0.89682652  0.50701038     0.08800
Cu1016     Cu  0.55505444  0.90310123  0.52900016     0.44200
Cu1017     Cu  0.58807202  0.89557553  0.53703220     0.42000
Cu1018     Cu  0.56369853  0.89701323  0.56234042     0.43900
N1019       N  0.54181998  0.90269192  0.54402432    -0.34800
N1020       N  0.54487341  0.90031537  0.55618810    -0.29100
C1021       C  0.53403675  0.90057804  0.56338715    -0.05200
C1022       C  0.52369694  0.90326156  0.55534354     0.07000
C1023       C  0.52900513  0.90455594  0.54316037     0.00800
H1024       H  0.53371010  0.89892672  0.57369420     0.08500
H1025       H  0.52391156  0.90671740  0.53430383     0.07600
N1026       N  0.58335560  0.89479765  0.56581647    -0.36300
N1027       N  0.59219811  0.89432903  0.55660086    -0.28500
C1028       C  0.60396712  0.89354523  0.56204343    -0.03700
C1029       C  0.60245689  0.89347605  0.57529975     0.04900
C1030       C  0.58928108  0.89427148  0.57736685     0.03000
H1031       H  0.61297666  0.89332364  0.55674849     0.08100
H1032       H  0.58439324  0.89479409  0.58658348     0.07000
N1033       N  0.41243972  0.95039002  0.56895311    -0.27400
N1034       N  0.42371807  0.95227955  0.56327241    -0.35300
C1035       C  0.42486896  0.96481847  0.56015819     0.00900
C1036       C  0.41384977  0.97121546  0.56418622     0.06900
C1037       C  0.40616589  0.96174821  0.56972560    -0.06200
H1038       H  0.43321141  0.96901274  0.55545567     0.07600
H1039       H  0.39674261  0.96302952  0.57406293     0.08800
Cu1040     Cu  0.43758063  0.93804549  0.56112164     0.44200
Cu1041     Cu  0.40617313  0.93230814  0.57505109     0.42000
Cu1042     Cu  0.43007448  0.90652016  0.57397333     0.43900
N1043       N  0.45108716  0.92345168  0.56314721    -0.34800
N1044       N  0.44848476  0.91197911  0.56810990    -0.29100
C1045       C  0.45948278  0.90506091  0.56871060    -0.05200
C1046       C  0.46944496  0.91259685  0.56393153     0.07000
C1047       C  0.46377077  0.92416470  0.56048245     0.00800
H1048       H  0.46020148  0.89534706  0.57247504     0.08500
H1049       H  0.46854986  0.93255538  0.55648728     0.07600
N1050       N  0.41059848  0.90358389  0.57787879    -0.36300
N1051       N  0.40192255  0.91295131  0.57831442    -0.28500
C1052       C  0.39009991  0.90770166  0.57961196    -0.03700
C1053       C  0.39139028  0.89440914  0.57996612     0.04900
C1054       C  0.40451151  0.89214879  0.57888494     0.03000
H1055       H  0.38116353  0.91311191  0.57947453     0.08100
H1056       H  0.40919815  0.88285534  0.57802877     0.07000
N1057       N  0.40449003  0.04700317  0.55557422    -0.27400
N1058       N  0.40465132  0.04356559  0.54328665    -0.35300
C1059       C  0.40524119  0.03063902  0.54248206     0.00900
C1060       C  0.40542655  0.02563052  0.55483942     0.06900
C1061       C  0.40492973  0.03627425  0.56293091    -0.06200
H1062       H  0.40591996  0.02528772  0.53354563     0.07600
H1063       H  0.40520365  0.03623061  0.57336569     0.08800
Cu1064     Cu  0.40527542  0.05643450  0.52802562     0.44200
Cu1065     Cu  0.40459386  0.06622861  0.56153757     0.42000
Cu1066     Cu  0.40867485  0.09002061  0.53571851     0.43900
N1067       N  0.40861896  0.07052883  0.51427580    -0.34800
N1068       N  0.41042978  0.08282286  0.51710777    -0.29100
C1069       C  0.41342490  0.08926856  0.50622336    -0.05200
C1070       C  0.41334798  0.08061296  0.49602184     0.07000
C1071       C  0.41020582  0.06883905  0.50151830     0.00800
H1072       H  0.41562290  0.09946401  0.50579744     0.08500
H1073       H  0.40931775  0.05966311  0.49662848     0.07600
N1074       N  0.40650107  0.09470773  0.55507911    -0.36300
N1075       N  0.40518511  0.08614239  0.56447230    -0.28500
C1076       C  0.40426541  0.09245153  0.57579403    -0.03700
C1077       C  0.40497263  0.10559555  0.57340277     0.04900
C1078       C  0.40635821  0.10664955  0.56016489     0.03000
H1079       H  0.40318430  0.08781648  0.58509197     0.08100
H1080       H  0.40719885  0.11546342  0.55462255     0.07000
N1081       N  0.55303458  0.08673222  0.36537872    -0.27400
N1082       N  0.54960807  0.07449965  0.36644147    -0.35300
C1083       C  0.53680329  0.07386342  0.36847066     0.00900
C1084       C  0.53184907  0.08629062  0.36852511     0.06900
C1085       C  0.54244915  0.09419894  0.36640746    -0.06200
H1086       H  0.53155324  0.06501695  0.37028486     0.07600
H1087       H  0.54256092  0.10463344  0.36612129     0.08800
Cu1088     Cu  0.56265512  0.05931515  0.36623411     0.44200
Cu1089     Cu  0.57215365  0.09258837  0.36472346     0.42000
Cu1090     Cu  0.59651174  0.06735688  0.36913508     0.43900
N1091       N  0.57709875  0.04570412  0.36883975    -0.34800
N1092       N  0.58939832  0.04861593  0.37062947    -0.29100
C1093       C  0.59585036  0.03779626  0.37388098    -0.05200
C1094       C  0.58720030  0.02756506  0.37401747     0.07000
C1095       C  0.57544620  0.03296587  0.37062680     0.00800
H1096       H  0.60598072  0.03748742  0.37640856     0.08500
H1097       H  0.56622688  0.02808686  0.37007372     0.07600
N1098       N  0.60068089  0.08696557  0.36763735    -0.36300
N1099       N  0.59180329  0.09605495  0.36632679    -0.28500
C1100       C  0.59756742  0.10767615  0.36659644    -0.03700
C1101       C  0.61072944  0.10587025  0.36799716     0.04900
C1102       C  0.61235884  0.09260400  0.36856507     0.03000
H1103       H  0.59250267  0.11679558  0.36608553     0.08100
H1104       H  0.62134709  0.08743326  0.36983529     0.07000
N1105       N  0.59428957  0.91391639  0.42244452    -0.27400
N1106       N  0.59398829  0.92614841  0.42601967    -0.35300
C1107       C  0.59286882  0.92673730  0.43893175     0.00900
C1108       C  0.59260292  0.91427226  0.44377478     0.06900
C1109       C  0.59364640  0.90639565  0.43301617    -0.06200
H1110       H  0.59190075  0.93559673  0.44436551     0.07600
H1111       H  0.59349203  0.89596010  0.43283120     0.08800
Cu1112     Cu  0.59462969  0.94145616  0.41313412     0.44200
Cu1113     Cu  0.59390046  0.90811307  0.40329627     0.42000
Cu1114     Cu  0.59200509  0.93362022  0.37915585     0.43900
N1115       N  0.59474422  0.95517942  0.39855762    -0.34800
N1116       N  0.59339714  0.95241064  0.38617578    -0.29100
C1117       C  0.59292186  0.96350907  0.37941816    -0.05200
C1118       C  0.59408388  0.97374188  0.38794957     0.07000
C1119       C  0.59531588  0.96806553  0.39998535     0.00800
H1120       H  0.59147072  0.96410486  0.36909347     0.08500
H1121       H  0.59615426  0.97295429  0.40916896     0.07600
N1122       N  0.59175289  0.91398986  0.37479471    -0.36300
N1123       N  0.59239482  0.90476485  0.38361629    -0.28500
C1124       C  0.59244494  0.89321413  0.37769945    -0.03700
C1125       C  0.59184642  0.89526335  0.36454623     0.04900
C1126       C  0.59145996  0.90852050  0.36300840     0.03000
H1127       H  0.59324397  0.88402303  0.38259180     0.08100
H1128       H  0.59130027  0.91379518  0.35399661     0.07000
N1129       N  0.45757009  0.09967174  0.38268709    -0.27400
N1130       N  0.46112314  0.09761668  0.39475563    -0.35300
C1131       C  0.47402073  0.09619218  0.39521695     0.00900
C1132       C  0.47887030  0.09748763  0.38283383     0.06900
C1133       C  0.46815363  0.09977372  0.37514672    -0.06200
H1134       H  0.47940704  0.09382572  0.40384606     0.07600
H1135       H  0.46800208  0.10084612  0.36476179     0.08800
Cu1136     Cu  0.44812865  0.09574773  0.40978371     0.44200
Cu1137     Cu  0.43835074  0.10033198  0.37698708     0.42000
Cu1138     Cu  0.41412795  0.09299378  0.40166572     0.43900
N1139       N  0.43368864  0.09295950  0.42327332    -0.34800
N1140       N  0.42130710  0.09161641  0.42044236    -0.29100
C1141       C  0.41472209  0.08939309  0.43144867    -0.05200
C1142       C  0.42340529  0.08940120  0.44164519     0.07000
C1143       C  0.43530502  0.09175204  0.43607651     0.00800
H1144       H  0.40441000  0.08779090  0.43198493     0.08500
H1145       H  0.44451082  0.09241548  0.44096354     0.07600
N1146       N  0.40994210  0.09546180  0.38210662    -0.36300
N1147       N  0.41873162  0.09833454  0.37327015    -0.28500
C1148       C  0.41296006  0.09921694  0.36167277    -0.03700
C1149       C  0.39993636  0.09676820  0.36324905     0.04900
C1150       C  0.39833839  0.09441785  0.37630945     0.03000
H1151       H  0.41791249  0.10131189  0.35271469     0.08100
H1152       H  0.38941143  0.09208219  0.38121910     0.07000
N1153       N  0.20468207  0.66423692  0.37284139    -0.27400
N1154       N  0.20842445  0.67559916  0.37723228    -0.35300
C1155       C  0.22123790  0.67538376  0.37918137     0.00900
C1156       C  0.22586381  0.66335329  0.37568671     0.06900
C1157       C  0.21507959  0.65653728  0.37165438    -0.06200
H1158       H  0.22675731  0.68334845  0.38307104     0.07600
H1159       H  0.21475103  0.64663745  0.36836847     0.08800
Cu1160     Cu  0.19598195  0.69083076  0.38054114     0.44200
Cu1161     Cu  0.18543652  0.65944089  0.37031057     0.42000
Cu1162     Cu  0.16187625  0.68388116  0.38009352     0.43900
N1163       N  0.18190643  0.70470008  0.38324857    -0.34800
N1164       N  0.16938780  0.70219912  0.38335607    -0.29100
C1165       C  0.16290784  0.71326927  0.38542584    -0.05200
C1166       C  0.17180719  0.72319640  0.38657652     0.07000
C1167       C  0.18374187  0.71739759  0.38511753     0.00800
H1168       H  0.15250150  0.71405277  0.38594429     0.08500
H1169       H  0.19307829  0.72207810  0.38529495     0.07600
N1170       N  0.15723614  0.66485815  0.37569484    -0.36300
N1171       N  0.16576117  0.65614484  0.37185639    -0.28500
C1172       C  0.15970346  0.64482286  0.36999915    -0.03700
C1173       C  0.14678523  0.64648690  0.37281613     0.04900
C1174       C  0.14551807  0.65926818  0.37640679     0.03000
H1175       H  0.16440968  0.63596290  0.36710231     0.08100
H1176       H  0.13676767  0.66410408  0.37944100     0.07000
N1177       N  0.33162378  0.79874998  0.56362116    -0.27400
N1178       N  0.31951414  0.79613958  0.56052487    -0.35300
C1179       C  0.31837635  0.78344990  0.55809784     0.00900
C1180       C  0.33032363  0.77774291  0.55981673     0.06900
C1181       C  0.33849239  0.78772847  0.56335312    -0.06200
H1182       H  0.30952067  0.77874571  0.55516618     0.07600
H1183       H  0.34871309  0.78705892  0.56541777     0.08800
Cu1184     Cu  0.30491878  0.80974516  0.56021110     0.44200
Cu1185     Cu  0.33829231  0.81724569  0.56774671     0.42000
Cu1186     Cu  0.31353443  0.84159840  0.57148975     0.43900
N1187       N  0.29167783  0.82437939  0.56315442    -0.34800
N1188       N  0.29475377  0.83590289  0.56767244    -0.29100
C1189       C  0.28394999  0.84301182  0.56882288    -0.05200
C1190       C  0.27360719  0.83560160  0.56477207     0.07000
C1191       C  0.27885624  0.82385789  0.56123747     0.00800
H1192       H  0.28366914  0.85287965  0.57221355     0.08500
H1193       H  0.27374178  0.81556866  0.55747365     0.07600
N1194       N  0.33309790  0.84536650  0.57324670    -0.36300
N1195       N  0.34220478  0.83653118  0.57179693    -0.28500
C1196       C  0.35383305  0.84221656  0.57307224    -0.03700
C1197       C  0.35189860  0.85521931  0.57542411     0.04900
C1198       C  0.33866048  0.85688339  0.57545351     0.03000
H1199       H  0.36300830  0.83731215  0.57210131     0.08100
H1200       H  0.33346033  0.86584697  0.57674348     0.07000
N1201       N  0.19882333  0.85062158  0.55846859    -0.27400
N1202       N  0.20135568  0.84703064  0.54648529    -0.35300
C1203       C  0.21412017  0.84506974  0.54525293     0.00900
C1204       C  0.21987850  0.84749852  0.55702005     0.06900
C1205       C  0.20992730  0.85099429  0.56520238    -0.06200
H1206       H  0.21881782  0.84174634  0.53653801     0.07600
H1207       H  0.21064978  0.85327510  0.57536240     0.08800
Cu1208     Cu  0.18744622  0.84438110  0.53238619     0.44200
Cu1209     Cu  0.18031739  0.85387362  0.56533623     0.42000
Cu1210     Cu  0.15473022  0.85135277  0.54161056     0.43900
N1211       N  0.17206541  0.84392559  0.51964453    -0.34800
N1212       N  0.16013562  0.84700401  0.52295963    -0.29100
C1213       C  0.15255906  0.84664490  0.51244860    -0.05200
C1214       C  0.16006977  0.84307253  0.50201279     0.07000
C1215       C  0.17237834  0.84136135  0.50694001     0.00800
H1216       H  0.14236312  0.84894793  0.51239426     0.08500
H1217       H  0.18097460  0.83865774  0.50164443     0.07600
N1218       N  0.15154653  0.85360373  0.56113112    -0.36300
N1219       N  0.16083356  0.85453102  0.56983795    -0.28500
C1220       C  0.15550443  0.85456865  0.58167792    -0.03700
C1221       C  0.14226557  0.85357539  0.58029164     0.04900
C1222       C  0.14008221  0.85302182  0.56716569     0.03000
H1223       H  0.16089425  0.85460495  0.59062152     0.08100
H1224       H  0.13089841  0.85163424  0.56238107     0.07000
N1225       N  0.15792996  0.79844663  0.39253133    -0.27400
N1226       N  0.15482417  0.79525418  0.40447509    -0.35300
C1227       C  0.15684195  0.78257176  0.40618868     0.00900
C1228       C  0.16158981  0.77749892  0.39479784     0.06900
C1229       C  0.16220821  0.78786388  0.38634124    -0.06200
H1230       H  0.15494928  0.77741731  0.41507298     0.07600
H1231       H  0.16540332  0.78770865  0.37640330     0.08800
Cu1232     Cu  0.14877653  0.80840080  0.41808358     0.44200
Cu1233     Cu  0.15550842  0.81699764  0.38536147     0.42000
Cu1234     Cu  0.14509627  0.84163687  0.40853967     0.43900
N1235       N  0.14607738  0.82333037  0.43090211    -0.34800
N1236       N  0.14451722  0.83553023  0.42753772    -0.29100
C1237       C  0.14442567  0.84286995  0.43824601    -0.05200
C1238       C  0.14622268  0.83485832  0.44880228     0.07000
C1239       C  0.14719331  0.82256699  0.44376449     0.00800
H1240       H  0.14386970  0.85329321  0.43827027     0.08500
H1241       H  0.14935885  0.81379373  0.44900471     0.07600
N1242       N  0.14830028  0.84505876  0.38911902    -0.36300
N1243       N  0.15179488  0.83613066  0.38069318    -0.28500
C1244       C  0.15282499  0.84159464  0.36896460    -0.03700
C1245       C  0.15002096  0.85460514  0.37008928     0.04900
C1246       C  0.14724423  0.85645515  0.38301384     0.03000
H1247       H  0.15546787  0.83646893  0.36026150     0.08100
H1248       H  0.14469587  0.86544584  0.38767032     0.07000
N1249       N  0.35219963  0.66594625  0.51350957    -0.27400
N1250       N  0.34835265  0.67766853  0.51025104    -0.35300
C1251       C  0.34613415  0.67803431  0.49749065     0.00900
C1252       C  0.34877463  0.66598481  0.49243804     0.06900
C1253       C  0.35264092  0.65855760  0.50285405    -0.06200
H1254       H  0.34250799  0.68636316  0.49233370     0.07600
H1255       H  0.35516859  0.64842806  0.50276600     0.08800
Cu1256     Cu  0.34571785  0.69256771  0.52319802     0.44200
Cu1257     Cu  0.35514068  0.66015704  0.53243961     0.42000
Cu1258     Cu  0.35036790  0.68492968  0.55674890     0.43900
N1259       N  0.34433961  0.70607158  0.53777015    -0.34800
N1260       N  0.34640424  0.70339868  0.55006783    -0.29100
C1261       C  0.34504537  0.71427803  0.55701447    -0.05200
C1262       C  0.34188065  0.72423940  0.54867069     0.07000
C1263       C  0.34148858  0.71866207  0.53655620     0.00800
H1264       H  0.34619591  0.71487490  0.56737212     0.08500
H1265       H  0.33925166  0.72339626  0.52751850     0.07600
N1266       N  0.35286045  0.66549703  0.56096003    -0.36300
N1267       N  0.35466150  0.65647575  0.55211317    -0.28500
C1268       C  0.35512354  0.64487342  0.55793705    -0.03700
C1269       C  0.35354137  0.64670100  0.57106110     0.04900
C1270       C  0.35214792  0.65987316  0.57264484     0.03000
H1271       H  0.35618241  0.63575996  0.55295891     0.08100
H1272       H  0.35036228  0.66495408  0.58158775     0.07000
N1273       N  0.33854286  0.64740552  0.41885323    -0.27400
N1274       N  0.32637854  0.64962270  0.42201725    -0.35300
C1275       C  0.32569423  0.65239783  0.43464150     0.00900
C1276       C  0.33801005  0.65183401  0.43971295     0.06900
C1277       C  0.34595215  0.64863477  0.42944947    -0.06200
H1278       H  0.31689193  0.65483076  0.43972020     0.07600
H1279       H  0.35633720  0.64749987  0.42962120     0.08800
Cu1280     Cu  0.31119742  0.64901229  0.40916636     0.44200
Cu1281     Cu  0.34433899  0.64369205  0.40009252     0.42000
Cu1282     Cu  0.31848000  0.64239588  0.37601538     0.43900
N1283       N  0.29728871  0.64780365  0.39498599    -0.34800
N1284       N  0.29990002  0.64532586  0.38275334    -0.29100
C1285       C  0.28889077  0.64590295  0.37589191    -0.05200
C1286       C  0.27892389  0.64885647  0.38427387     0.07000
C1287       C  0.28457220  0.64999481  0.39628133     0.00800
H1288       H  0.28825993  0.64471890  0.36553969     0.08500
H1289       H  0.27987082  0.65269892  0.40520603     0.07600
N1290       N  0.33797025  0.64135086  0.37171934    -0.36300
N1291       N  0.34732126  0.64189123  0.38040802    -0.28500
C1292       C  0.35877753  0.64187759  0.37430157    -0.03700
C1293       C  0.35648566  0.64126132  0.36119289     0.04900
C1294       C  0.34323151  0.64093347  0.35986591     0.03000
H1295       H  0.36806201  0.64263127  0.37903019     0.08100
H1296       H  0.33780677  0.64085060  0.35094365     0.07000
N1297       N  0.59695476  0.83755898  0.26763692    -0.27400
N1298       N  0.59440257  0.82557628  0.26411758    -0.35300
C1299       C  0.59205129  0.82533103  0.25137280     0.00900
C1300       C  0.59329902  0.83773914  0.24656522     0.06900
C1301       C  0.59649283  0.84524314  0.25716357    -0.06200
H1302       H  0.58928910  0.81679000  0.24604522     0.07600
H1303       H  0.59798140  0.85557444  0.25733535     0.08800
Cu1304     Cu  0.59368844  0.81018124  0.27686513     0.44200
Cu1305     Cu  0.59915280  0.84294330  0.28677726     0.42000
Cu1306     Cu  0.59340536  0.81754680  0.31083258     0.43900
N1307       N  0.59265160  0.79620996  0.29114400    -0.34800
N1308       N  0.59206889  0.79882200  0.30361194    -0.29100
C1309       C  0.59059757  0.78767802  0.31017414    -0.05200
C1310       C  0.59036687  0.77756219  0.30139775     0.07000
C1311       C  0.59179210  0.78338341  0.28944702     0.00800
H1312       H  0.58957314  0.78700708  0.32054321     0.08500
H1313       H  0.59195979  0.77865126  0.28014682     0.07600
N1314       N  0.59546220  0.83708406  0.31517818    -0.36300
N1315       N  0.59777581  0.84617421  0.30648781    -0.28500
C1316       C  0.59816651  0.85771406  0.31241116    -0.03700
C1317       C  0.59598349  0.85581674  0.32542630     0.04900
C1318       C  0.59431158  0.84264500  0.32686394     0.03000
H1319       H  0.59957325  0.86685173  0.30754804     0.08100
H1320       H  0.59219433  0.83751373  0.33571309     0.07000
N1321       N  0.41927661  0.65200686  0.26637884    -0.27400
N1322       N  0.43186568  0.65227382  0.26432272    -0.35300
C1323       C  0.43408997  0.65387266  0.25165533     0.00900
C1324       C  0.42233004  0.65490776  0.24540859     0.06900
C1325       C  0.41312627  0.65365569  0.25505340    -0.06200
H1326       H  0.44358754  0.65460967  0.24736341     0.07600
H1327       H  0.40275065  0.65420467  0.25396656     0.08800
Cu1328     Cu  0.44547661  0.65169196  0.27887847     0.44200
Cu1329     Cu  0.41137664  0.64951476  0.28460854     0.42000
Cu1330     Cu  0.43486420  0.64613341  0.31121677     0.43900
N1331       N  0.45781945  0.65143250  0.29453215    -0.34800
N1332       N  0.45409959  0.64897129  0.30647480    -0.29100
C1333       C  0.46452498  0.64912719  0.31425469    -0.05200
C1334       C  0.47529066  0.65194361  0.30679294     0.07000
C1335       C  0.47062163  0.65340880  0.29437582     0.00800
H1336       H  0.46427526  0.64731950  0.32453426     0.08500
H1337       H  0.47615609  0.65569875  0.28581474     0.07600
N1338       N  0.41498061  0.64501183  0.31326126    -0.36300
N1339       N  0.40651415  0.64625229  0.30376113    -0.28500
C1340       C  0.39450450  0.64543956  0.30866561    -0.03700
C1341       C  0.39552836  0.64362773  0.32182175     0.04900
C1342       C  0.40858427  0.64343361  0.32443199     0.03000
H1343       H  0.38570615  0.64641705  0.30311787     0.08100
H1344       H  0.41310419  0.64251039  0.33380012     0.07000
N1345       N  0.58603074  0.70137884  0.31135081    -0.27400
N1346       N  0.57369418  0.70373440  0.31364595    -0.35300
C1347       C  0.57163420  0.71652873  0.31330271     0.00900
C1348       C  0.58316410  0.72262815  0.31041094     0.06900
C1349       C  0.59211890  0.71270582  0.30927150    -0.06200
H1350       H  0.56231448  0.72103986  0.31467883     0.07600
H1351       H  0.60223431  0.71363814  0.30682418     0.08800
Cu1352     Cu  0.55979301  0.68956852  0.31578382     0.44200
Cu1353     Cu  0.59363200  0.68267527  0.31109453     0.42000
Cu1354     Cu  0.56996687  0.65655376  0.31602153     0.43900
N1355       N  0.54702047  0.67424695  0.31648976    -0.34800
N1356       N  0.55068598  0.66206108  0.31716484    -0.29100
C1357       C  0.54010275  0.65450769  0.31742704    -0.05200
C1358       C  0.52924119  0.66232727  0.31657205     0.07000
C1359       C  0.53406821  0.67477922  0.31597077     0.00800
H1360       H  0.54032778  0.64407829  0.31781057     0.08500
H1361       H  0.52857792  0.68359003  0.31483104     0.07600
N1362       N  0.58972517  0.65370791  0.31367225    -0.36300
N1363       N  0.59831143  0.66305173  0.31209195    -0.28500
C1364       C  0.61019266  0.65776347  0.31149448    -0.03700
C1365       C  0.60903182  0.64447719  0.31267244     0.04900
C1366       C  0.59590260  0.64228832  0.31395829     0.03000
H1367       H  0.61905706  0.66320790  0.31050449     0.08100
H1368       H  0.59118161  0.63305531  0.31521345     0.07000
N1369       N  0.40560747  0.70457377  0.13492645    -0.27400
N1370       N  0.40399832  0.70680971  0.14737869    -0.35300
C1371       C  0.40368997  0.71961440  0.14940212     0.00900
C1372       C  0.40531772  0.72578571  0.13767387     0.06900
C1373       C  0.40645891  0.71594896  0.12868987    -0.06200
H1374       H  0.40292560  0.72409768  0.15879919     0.07600
H1375       H  0.40828965  0.71698885  0.11846078     0.08800
Cu1376     Cu  0.40435652  0.69250711  0.16128044     0.44200
Cu1377     Cu  0.40753243  0.68608321  0.12734878     0.42000
Cu1378     Cu  0.41271098  0.66028321  0.15082534     0.43900
N1379       N  0.40877052  0.67762566  0.17380847    -0.34800
N1380       N  0.41229397  0.66594222  0.17009241    -0.29100
C1381       C  0.41543227  0.65896383  0.18060843    -0.05200
C1382       C  0.41375342  0.66665376  0.19142289     0.07000
C1383       C  0.40947952  0.67838600  0.18672546     0.00800
H1384       H  0.41883826  0.64909647  0.18038971     0.08500
H1385       H  0.40726658  0.68694115  0.19227655     0.07600
N1386       N  0.41148950  0.65735780  0.13098348    -0.36300
N1387       N  0.40946707  0.66669331  0.12249001    -0.28500
C1388       C  0.40874994  0.66151085  0.11059943    -0.03700
C1389       C  0.41044110  0.64831308  0.11166251     0.04900
C1390       C  0.41215942  0.64600956  0.12469973     0.03000
H1391       H  0.40704209  0.66693476  0.10183873     0.08100
H1392       H  0.41358970  0.63674122  0.12929645     0.07000
N1393       N  0.58000769  0.85432805  0.17295123    -0.27400
N1394       N  0.56785426  0.85219690  0.17621193    -0.35300
C1395       C  0.56729820  0.84978442  0.18896043     0.00900
C1396       C  0.57970371  0.85049780  0.19392956     0.06900
C1397       C  0.58749466  0.85345979  0.18350193    -0.06200
H1398       H  0.55856606  0.84735131  0.19417053     0.07600
H1399       H  0.59789068  0.85454437  0.18350589     0.08800
Cu1400     Cu  0.55286573  0.85195439  0.16287890     0.44200
Cu1401     Cu  0.58601282  0.85687103  0.15415732     0.42000
Cu1402     Cu  0.56202136  0.85296944  0.12893483     0.43900
N1403       N  0.53983455  0.85064973  0.14768445    -0.34800
N1404       N  0.54316959  0.85058707  0.13536055    -0.29100
C1405       C  0.53255551  0.84858972  0.12813191    -0.05200
C1406       C  0.52201382  0.84743692  0.13628869     0.07000
C1407       C  0.52700428  0.84887645  0.14859952     0.00800
H1408       H  0.53256020  0.84776183  0.11772424     0.08500
H1409       H  0.52173021  0.84835401  0.15760325     0.07600
N1410       N  0.58161127  0.85550863  0.12546545    -0.36300
N1411       N  0.59027975  0.85693873  0.13472929    -0.28500
C1412       C  0.60210412  0.85773473  0.12945754    -0.03700
C1413       C  0.60079829  0.85681985  0.11625623     0.04900
C1414       C  0.58771714  0.85542943  0.11400038     0.03000
H1415       H  0.61100471  0.85861466  0.13485523     0.08100
H1416       H  0.58303346  0.85411901  0.10476184     0.07000
N1417       N  0.41041575  0.80164090  0.12819785    -0.27400
N1418       N  0.42201737  0.79888057  0.12362428    -0.35300
C1419       C  0.42354907  0.78600216  0.12342510     0.00900
C1420       C  0.41238943  0.78036811  0.12811810     0.06900
C1421       C  0.40424298  0.79055117  0.13102791    -0.06200
H1422       H  0.43235064  0.78111924  0.12063204     0.07600
H1423       H  0.39475380  0.78995675  0.13536511     0.08800
Cu1424     Cu  0.43602049  0.81260464  0.11974316     0.44200
Cu1425     Cu  0.40402225  0.82040929  0.13128233     0.42000
Cu1426     Cu  0.42840090  0.84549287  0.12834804     0.43900
N1427       N  0.44973267  0.82706351  0.12115384    -0.34800
N1428       N  0.44705374  0.83899502  0.12478236    -0.29100
C1429       C  0.45819775  0.84538395  0.12675619    -0.05200
C1430       C  0.46835935  0.83705927  0.12425954     0.07000
C1431       C  0.46261984  0.82556317  0.12063441     0.00800
H1432       H  0.45885967  0.85512614  0.13044302     0.08500
H1433       H  0.46744314  0.81653699  0.11857801     0.07600
N1434       N  0.40895151  0.84916652  0.13171198    -0.36300
N1435       N  0.40009963  0.84002677  0.13288443    -0.28500
C1436       C  0.38844107  0.84558478  0.13432142    -0.03700
C1437       C  0.39002027  0.85884668  0.13399717     0.04900
C1438       C  0.40314408  0.86077113  0.13235127     0.03000
H1439       H  0.37941840  0.84036242  0.13505590     0.08100
H1440       H  0.40804110  0.86992626  0.13119420     0.07000
N1441       N  0.15109909  0.29595906  0.88955675    -0.27400
N1442       N  0.15398455  0.29317952  0.90166382    -0.35300
C1443       C  0.15617362  0.28044729  0.90269730     0.00900
C1444       C  0.15445553  0.27490155  0.89068458     0.06900
C1445       C  0.15122202  0.28502244  0.88257493    -0.06200
H1446       H  0.15890189  0.27559597  0.91153591     0.07600
H1447       H  0.14925832  0.28450703  0.87233357     0.08800
Cu1448     Cu  0.15477955  0.30673635  0.91626192     0.44200
Cu1449     Cu  0.14820691  0.31463008  0.88304592     0.42000
Cu1450     Cu  0.15135115  0.34009427  0.90726292     0.43900
N1451       N  0.15485065  0.32170783  0.92943259    -0.34800
N1452       N  0.15356936  0.33399358  0.92623194    -0.29100
C1453       C  0.15414569  0.34122947  0.93700942    -0.05200
C1454       C  0.15585949  0.33304863  0.94744358     0.07000
C1455       C  0.15626300  0.32076824  0.94228200     0.00800
H1456       H  0.15341874  0.35164315  0.93723027     0.08500
H1457       H  0.15758703  0.31180641  0.94748377     0.07600
N1458       N  0.14980561  0.34339832  0.88754298    -0.36300
N1459       N  0.14846640  0.33417135  0.87881937    -0.28500
C1460       C  0.14828060  0.33951587  0.86699125    -0.03700
C1461       C  0.14959404  0.35270719  0.86834269     0.04900
C1462       C  0.15054085  0.35486040  0.88147137     0.03000
H1463       H  0.14763022  0.33416390  0.85805500     0.08100
H1464       H  0.15192696  0.36404086  0.88623686     0.07000
N1465       N  0.32617305  0.30255313  0.06036705    -0.27400
N1466       N  0.31379101  0.30023849  0.06243879    -0.35300
C1467       C  0.31159220  0.28748601  0.06168708     0.00900
C1468       C  0.32312475  0.28140590  0.05886507     0.06900
C1469       C  0.33218128  0.29125473  0.05808659    -0.06200
H1470       H  0.30227707  0.28298246  0.06313850     0.07600
H1471       H  0.34238837  0.29026131  0.05608173     0.08800
Cu1472     Cu  0.30031983  0.31439878  0.06599866     0.44200
Cu1473     Cu  0.33415735  0.32102843  0.06139851     0.42000
Cu1474     Cu  0.31139091  0.34686393  0.07002525     0.43900
N1475       N  0.28811275  0.32976112  0.06909442    -0.34800
N1476       N  0.29205457  0.34173941  0.07092431    -0.29100
C1477       C  0.28164912  0.34941358  0.07232200    -0.05200
C1478       C  0.27066061  0.34184369  0.07115810     0.07000
C1479       C  0.27516980  0.32946762  0.06910163     0.00800
H1480       H  0.28206246  0.35975427  0.07367070     0.08500
H1481       H  0.26944427  0.32091709  0.06731273     0.07600
N1482       N  0.33108958  0.34950346  0.06749657    -0.36300
N1483       N  0.33934938  0.34029707  0.06426644    -0.28500
C1484       C  0.35124876  0.34549137  0.06331368    -0.03700
C1485       C  0.35038835  0.35853747  0.06609393     0.04900
C1486       C  0.33748948  0.36073206  0.06867627     0.03000
H1487       H  0.35987959  0.34018079  0.06078043     0.08100
H1488       H  0.33305190  0.36985879  0.07112603     0.07000
N1489       N  0.33521986  0.15475351  0.91815321    -0.27400
N1490       N  0.32344921  0.15925939  0.92011383    -0.35300
C1491       C  0.32184934  0.16189029  0.93269074     0.00900
C1492       C  0.33315939  0.15888883  0.93905677     0.06900
C1493       C  0.34147411  0.15438461  0.92955377    -0.06200
H1494       H  0.31314703  0.16589942  0.93685876     0.07600
H1495       H  0.35138118  0.15131877  0.93080530     0.08800
Cu1496     Cu  0.30995848  0.16137328  0.90575057     0.44200
Cu1497     Cu  0.34188811  0.15008318  0.89972800     0.42000
Cu1498     Cu  0.31695300  0.14869626  0.87431241     0.43900
N1499       N  0.29630775  0.15937898  0.89153370    -0.34800
N1500       N  0.29850794  0.15404453  0.88016996    -0.29100
C1501       C  0.28721593  0.15305824  0.87378485    -0.05200
C1502       C  0.27754109  0.15806146  0.88157839     0.07000
C1503       C  0.28370070  0.16205540  0.89267874     0.00800
H1504       H  0.28610650  0.14886567  0.86428834     0.08500
H1505       H  0.27928662  0.16628816  0.90114428     0.07600
N1506       N  0.33668831  0.14684868  0.87101029    -0.36300
N1507       N  0.34566638  0.14753149  0.88009234    -0.28500
C1508       C  0.35738269  0.14719005  0.87444977    -0.03700
C1509       C  0.35569426  0.14620703  0.86124093     0.04900
C1510       C  0.34247559  0.14600485  0.85940261     0.03000
H1511       H  0.36646287  0.14801107  0.87954754     0.08100
H1512       H  0.33743372  0.14580677  0.85026074     0.07000
N1513       N  0.33618983  0.20602880  0.05167218    -0.27400
N1514       N  0.33793180  0.20934148  0.03947210    -0.35300
C1515       C  0.33648410  0.22215985  0.03827418     0.00900
C1516       C  0.33351322  0.22720762  0.05025535     0.06900
C1517       C  0.33343508  0.21670688  0.05855902    -0.06200
H1518       H  0.33718449  0.22738182  0.02925738     0.07600
H1519       H  0.33127787  0.21678467  0.06877439     0.08800
Cu1520     Cu  0.34096642  0.19636125  0.02464212     0.44200
Cu1521     Cu  0.33764454  0.18705961  0.05809998     0.42000
Cu1522     Cu  0.34526380  0.16317791  0.03311537     0.43900
N1523       N  0.34223579  0.18177203  0.01110550    -0.34800
N1524       N  0.34398114  0.16951900  0.01417303    -0.29100
C1525       C  0.34378053  0.16238962  0.00332560    -0.05200
C1526       C  0.34172458  0.17057614  0.99295207     0.07000
C1527       C  0.34078388  0.18278531  0.99825681     0.00800
H1528       H  0.34470228  0.15199441  0.00304438     0.08500
H1529       H  0.33880970  0.19170295  0.99318899     0.07600
N1530       N  0.34430565  0.15909946  0.05269473    -0.36300
N1531       N  0.34119911  0.16761836  0.06168499    -0.28500
C1532       C  0.34095030  0.16164700  0.07321535    -0.03700
C1533       C  0.34408979  0.14878875  0.07140677     0.04900
C1534       C  0.34619028  0.14753067  0.05828558     0.03000
H1535       H  0.33857416  0.16630204  0.08225157     0.08100
H1536       H  0.34877498  0.13881940  0.05314937     0.07000
N1537       N  0.16086258  0.34694139  0.02270898    -0.27400
N1538       N  0.17278222  0.34265555  0.02118759    -0.35300
C1539       C  0.17467328  0.33968133  0.00870384     0.00900
C1540       C  0.16345919  0.34241522  0.00195152     0.06900
C1541       C  0.15491682  0.34703292  0.01116843    -0.06200
H1542       H  0.18361803  0.33594015  0.00481217     0.07600
H1543       H  0.14510714  0.35026090  0.00960458     0.08800
Cu1544     Cu  0.18630418  0.34244950  0.03587105     0.44200
Cu1545     Cu  0.15325246  0.35203263  0.04054596     0.42000
Cu1546     Cu  0.17614656  0.35439031  0.06708634     0.43900
N1547       N  0.19889232  0.34658789  0.05080276    -0.34800
N1548       N  0.19531201  0.35122242  0.06214119    -0.29100
C1549       C  0.20590626  0.35319272  0.06941571    -0.05200
C1550       C  0.21661433  0.34964570  0.06224847     0.07000
C1551       C  0.21181030  0.34550058  0.05053474     0.00800
H1552       H  0.20581304  0.35683664  0.07919890     0.08500
H1553       H  0.21731064  0.34188958  0.04242117     0.07600
N1554       N  0.15626610  0.35580965  0.06929293    -0.36300
N1555       N  0.14793627  0.35503987  0.05964676    -0.28500
C1556       C  0.13586133  0.35577247  0.06441027    -0.03700
C1557       C  0.13663319  0.35701190  0.07768677     0.04900
C1558       C  0.14970987  0.35701254  0.08043448     0.03000
H1559       H  0.12716237  0.35518031  0.05866054     0.08100
H1560       H  0.15412818  0.35752651  0.08988222     0.07000
N1561       N  0.16325902  0.19967386  0.87855230    -0.27400
N1562       N  0.17550417  0.20303790  0.87974230    -0.35300
C1563       C  0.17626316  0.21589310  0.88109049     0.00900
C1564       C  0.16390517  0.22093408  0.88055244     0.06900
C1565       C  0.15588388  0.21035862  0.87887659    -0.06200
H1566       H  0.18516823  0.22117795  0.88247863     0.07600
H1567       H  0.14546449  0.21038501  0.87814362     0.08800
Cu1568     Cu  0.19065899  0.19012770  0.87907154     0.44200
Cu1569     Cu  0.15732913  0.18061998  0.87762514     0.42000
Cu1570     Cu  0.18277711  0.15633747  0.87599468     0.43900
N1571       N  0.20430814  0.17582058  0.87666508    -0.34800
N1572       N  0.20149472  0.16344318  0.87538726    -0.29100
C1573       C  0.21255566  0.15669945  0.87441204    -0.05200
C1574       C  0.22276788  0.16529097  0.87512372     0.07000
C1575       C  0.21719246  0.17730725  0.87654520     0.00800
H1576       H  0.21313170  0.14630155  0.87369828     0.08500
H1577       H  0.22214227  0.18640957  0.87785706     0.07600
N1578       N  0.16326661  0.15206914  0.87762600    -0.36300
N1579       N  0.15406918  0.16091319  0.87829312    -0.28500
C1580       C  0.14255492  0.15500791  0.87932541    -0.03700
C1581       C  0.14462092  0.14185551  0.87927343     0.04900
C1582       C  0.15782414  0.14028732  0.87815144     0.03000
H1583       H  0.13334926  0.15992440  0.87984998     0.08100
H1584       H  0.16306607  0.13127116  0.87760832     0.07000
N1585       N  0.33269900  0.95681313  0.12616644    -0.27400
N1586       N  0.32045116  0.96016306  0.12485607    -0.35300
C1587       C  0.31950388  0.97309039  0.12519478     0.00900
C1588       C  0.33174714  0.97821426  0.12669300     0.06900
C1589       C  0.33989978  0.96759352  0.12722396    -0.06200
H1590       H  0.31048736  0.97836406  0.12488147     0.07600
H1591       H  0.35024436  0.96768587  0.12869598     0.08800
Cu1592     Cu  0.30534352  0.94713187  0.12399250     0.44200
Cu1593     Cu  0.33864529  0.93765976  0.12777071     0.42000
Cu1594     Cu  0.31263846  0.91368131  0.12972870     0.43900
N1595       N  0.29130796  0.93316776  0.12659718    -0.34800
N1596       N  0.29389363  0.92093206  0.12911134    -0.29100
C1597       C  0.28276663  0.91478021  0.13188921    -0.05200
C1598       C  0.27271957  0.92359381  0.13105821     0.07000
C1599       C  0.27851346  0.93511811  0.12758687     0.00800
H1600       H  0.28209551  0.90477797  0.13481140     0.08500
H1601       H  0.27383987  0.94438200  0.12643097     0.07600
N1602       N  0.33223098  0.90923383  0.13068703    -0.36300
N1603       N  0.34162471  0.91788167  0.13000112    -0.28500
C1604       C  0.35306382  0.91176356  0.13088776    -0.03700
C1605       C  0.35078008  0.89866167  0.13218943     0.04900
C1606       C  0.33746850  0.89741661  0.13203030     0.03000
H1607       H  0.36237747  0.91648586  0.13044276     0.08100
H1608       H  0.33198906  0.88855118  0.13274844     0.07000
N1609       N  0.15874795  0.90795578  0.17696586    -0.27400
N1610       N  0.17079820  0.90981522  0.18073416    -0.35300
C1611       C  0.17106453  0.91075145  0.19365945     0.00900
C1612       C  0.15859458  0.90932460  0.19824531     0.06900
C1613       C  0.15102567  0.90754877  0.18739831    -0.06200
H1614       H  0.17967793  0.91252437  0.19929828     0.07600
H1615       H  0.14065946  0.90626172  0.18708758     0.08800
Cu1616     Cu  0.18627737  0.91134660  0.16815625     0.44200
Cu1617     Cu  0.15330665  0.90705058  0.15781068     0.42000
Cu1618     Cu  0.17850283  0.91265567  0.13404626     0.43900
N1619       N  0.20002002  0.91345331  0.15376974    -0.34800
N1620       N  0.19721026  0.91429608  0.14135026    -0.29100
C1621       C  0.20822811  0.91612327  0.13468396    -0.05200
C1622       C  0.21847329  0.91631697  0.14330246     0.07000
C1623       C  0.21287333  0.91454932  0.15531188     0.00800
H1624       H  0.20874642  0.91725193  0.12431509     0.08500
H1625       H  0.21777806  0.91411182  0.16451919     0.07600
N1626       N  0.15899619  0.91048650  0.12945823    -0.36300
N1627       N  0.14991816  0.90835783  0.13820236    -0.28500
C1628       C  0.13836846  0.90766895  0.13232971    -0.03700
C1629       C  0.14024410  0.90943331  0.11927282     0.04900
C1630       C  0.15340923  0.91118564  0.11773307     0.03000
H1631       H  0.12926242  0.90613869  0.13722673     0.08100
H1632       H  0.15851764  0.91294695  0.10879201     0.07000
N1633       N  0.33774236  0.09245971  0.16988401    -0.27400
N1634       N  0.33863510  0.08020198  0.17325428    -0.35300
C1635       C  0.33839965  0.07925936  0.18616386     0.00900
C1636       C  0.33704859  0.09150820  0.19126435     0.06900
C1637       C  0.33665436  0.09967598  0.18064108    -0.06200
H1638       H  0.33914491  0.07028549  0.19144688     0.07600
H1639       H  0.33570362  0.11007093  0.18072285     0.08800
Cu1640     Cu  0.33979211  0.06522419  0.16026123     0.44200
Cu1641     Cu  0.33896374  0.09833129  0.15073157     0.42000
Cu1642     Cu  0.34744623  0.07248252  0.12746846     0.43900
N1643       N  0.34138750  0.05128706  0.14619957    -0.34800
N1644       N  0.34502712  0.05370563  0.13422975    -0.29100
C1645       C  0.34542418  0.04249402  0.12765932    -0.05200
C1646       C  0.34160570  0.03259072  0.13588363     0.07000
C1647       C  0.33906060  0.03861777  0.14751893     0.00800
H1648       H  0.34802072  0.04166375  0.11758210     0.08500
H1649       H  0.33555998  0.03415595  0.15629083     0.07600
N1650       N  0.34566779  0.09198641  0.12288472    -0.36300
N1651       N  0.34227662  0.10115013  0.13112554    -0.28500
C1652       C  0.34142464  0.11244068  0.12476005    -0.03700
C1653       C  0.34443713  0.11031376  0.11193218     0.04900
C1654       C  0.34708317  0.09725453  0.11109159     0.03000
H1655       H  0.33873508  0.12152627  0.12913906     0.08100
H1656       H  0.34972566  0.09194180  0.10250435     0.07000
N1657       N  0.33815829  0.10325362  0.26687988    -0.27400
N1658       N  0.32594039  0.10654963  0.26515145    -0.35300
C1659       C  0.32335578  0.10689487  0.25246499     0.00900
C1660       C  0.33439337  0.10346880  0.24580902     0.06900
C1661       C  0.34363882  0.10129303  0.25524090    -0.06200
H1662       H  0.31385954  0.10852660  0.24841866     0.07600
H1663       H  0.35336414  0.09775495  0.25377966     0.08800
Cu1664     Cu  0.31235418  0.10741510  0.27971634     0.44200
Cu1665     Cu  0.34614291  0.10013884  0.28510428     0.42000
Cu1666     Cu  0.32225957  0.09649433  0.31086330     0.43900
N1667       N  0.29945746  0.10281214  0.29421744    -0.34800
N1668       N  0.30304667  0.09838024  0.30562220    -0.29100
C1669       C  0.29247909  0.09474810  0.31226821    -0.05200
C1670       C  0.28175545  0.09699060  0.30461813     0.07000
C1671       C  0.28653650  0.10214520  0.29327105     0.00800
H1672       H  0.29263327  0.09027584  0.32170596     0.08500
H1673       H  0.28108154  0.10460634  0.28471325     0.07600
N1674       N  0.34205787  0.09600730  0.31375212    -0.36300
N1675       N  0.35079141  0.09748807  0.30452832    -0.28500
C1676       C  0.36263619  0.09740771  0.30991958    -0.03700
C1677       C  0.36122055  0.09572131  0.32310081     0.04900
C1678       C  0.34808449  0.09488139  0.32518541     0.03000
H1679       H  0.37158337  0.09874176  0.30468395     0.08100
H1680       H  0.34323761  0.09391049  0.33438968     0.07000
N1681       N  0.14530931  0.91476369  0.27338449    -0.27400
N1682       N  0.14789915  0.92690438  0.27046365    -0.35300
C1683       C  0.14878403  0.92810583  0.25760780     0.00900
C1684       C  0.14655706  0.91617864  0.25208400     0.06900
C1685       C  0.14428862  0.90793007  0.26238595    -0.06200
H1686       H  0.15147883  0.93690715  0.25266517     0.07600
H1687       H  0.14263508  0.89763043  0.26196520     0.08800
Cu1688     Cu  0.15139134  0.94118063  0.28387131     0.44200
Cu1689     Cu  0.14538750  0.90793690  0.29220065     0.42000
Cu1690     Cu  0.15487101  0.93174777  0.31680023     0.43900
N1691       N  0.15582311  0.95403824  0.29839132    -0.34800
N1692       N  0.15728791  0.95063215  0.31058985    -0.29100
C1693       C  0.16053180  0.96112849  0.31752478    -0.05200
C1694       C  0.16110664  0.97160043  0.30922493     0.07000
C1695       C  0.15804045  0.96674973  0.29719469     0.00800
H1696       H  0.16245790  0.96111581  0.32778414     0.08500
H1697       H  0.15757935  0.97204843  0.28820734     0.07600
N1698       N  0.15179448  0.91227870  0.32036628    -0.36300
N1699       N  0.14833686  0.90370153  0.31154948    -0.28500
C1700       C  0.14730036  0.89204001  0.31717716    -0.03700
C1701       C  0.15022046  0.89340201  0.33009921     0.04900
C1702       C  0.15299859  0.90630548  0.33182325     0.03000
H1703       H  0.14459932  0.88324985  0.31223824     0.08100
H1704       H  0.15567979  0.91101322  0.34074461     0.07000
N1705       N  0.17076118  0.04668556  0.31802215    -0.27400
N1706       N  0.18295922  0.04402551  0.32069120    -0.35300
C1707       C  0.18448404  0.03116023  0.32125400     0.00900
C1708       C  0.17273676  0.02538764  0.31857481     0.06900
C1709       C  0.16424316  0.03553790  0.31661917    -0.06200
H1710       H  0.19361929  0.02636602  0.32288992     0.07600
H1711       H  0.15417844  0.03486674  0.31388980     0.08800
Cu1712     Cu  0.19748535  0.05771906  0.32125148     0.44200
Cu1713     Cu  0.16374382  0.06535583  0.31580913     0.42000
Cu1714     Cu  0.18811841  0.09060424  0.31525207     0.43900
N1715       N  0.21059408  0.07241949  0.31791153    -0.34800
N1716       N  0.20718051  0.08448918  0.31557478    -0.29100
C1717       C  0.21784284  0.09149208  0.31309634    -0.05200
C1718       C  0.22844199  0.08340424  0.31389425     0.07000
C1719       C  0.22350404  0.07139236  0.31696053     0.00800
H1720       H  0.21786263  0.10165117  0.31067336     0.08500
H1721       H  0.22887520  0.06252453  0.31820695     0.07600
N1722       N  0.16840735  0.09409889  0.31470877    -0.36300
N1723       N  0.15949694  0.08494379  0.31479314    -0.28500
C1724       C  0.14774292  0.09048493  0.31433936    -0.03700
C1725       C  0.14937164  0.10373834  0.31396163     0.04900
C1726       C  0.16257619  0.10568041  0.31420689     0.03000
H1727       H  0.13868987  0.08526637  0.31437386     0.08100
H1728       H  0.16758160  0.11484726  0.31401713     0.07000
N1729       N  0.15660646  0.40166913  0.67179063    -0.27400
N1730       N  0.16865956  0.40398288  0.67528830    -0.35300
C1731       C  0.16921896  0.40479900  0.68822065     0.00900
C1732       C  0.15694420  0.40281089  0.69313847     0.06900
C1733       C  0.14917917  0.40083192  0.68243416    -0.06200
H1734       H  0.17789949  0.40686149  0.69365096     0.07600
H1735       H  0.13887241  0.39911668  0.68237104     0.08800
Cu1736     Cu  0.18377359  0.40607922  0.66230957     0.44200
Cu1737     Cu  0.15089477  0.40071065  0.65262052     0.42000
Cu1738     Cu  0.17577857  0.40824785  0.62851544     0.43900
N1739       N  0.19744977  0.40834133  0.64785122    -0.34800
N1740       N  0.19458337  0.40969666  0.63549799    -0.29100
C1741       C  0.20555655  0.41194802  0.62885608    -0.05200
C1742       C  0.21583801  0.41188134  0.63744979     0.07000
C1743       C  0.21028906  0.40944787  0.64937333     0.00800
H1744       H  0.20597823  0.41377542  0.61858554     0.08500
H1745       H  0.21520141  0.40885874  0.65856492     0.07600
N1746       N  0.15638360  0.40502372  0.62423147    -0.36300
N1747       N  0.14748151  0.40205511  0.63292317    -0.28500
C1748       C  0.13600810  0.40072172  0.62697850    -0.03700
C1749       C  0.13776226  0.40296945  0.61395350     0.04900
C1750       C  0.15076859  0.40568159  0.61253354     0.03000
H1751       H  0.12699619  0.39859177  0.63182562     0.08100
H1752       H  0.15574415  0.40812814  0.60367833     0.07000
N1753       N  0.29158752  0.41915988  0.62627173    -0.27400
N1754       N  0.28913026  0.43166643  0.62577691    -0.35300
C1755       C  0.27640368  0.43361208  0.62735755     0.00900
C1756       C  0.27047121  0.42178891  0.62914322     0.06900
C1757       C  0.28041962  0.41281813  0.62841754    -0.06200
H1758       H  0.27179753  0.44298179  0.62713655     0.07600
H1759       H  0.27957728  0.40244479  0.62927265     0.08800
Cu1760     Cu  0.30305538  0.44570783  0.62329281     0.44200
Cu1761     Cu  0.31004320  0.41157366  0.62327563     0.42000
Cu1762     Cu  0.33554007  0.43553328  0.61719825     0.43900
N1763       N  0.31826806  0.45843394  0.62131947    -0.34800
N1764       N  0.33020350  0.45480896  0.61865366    -0.29100
C1765       C  0.33783420  0.46532776  0.61837535    -0.05200
C1766       C  0.33034020  0.47605772  0.62121239     0.07000
C1767       C  0.31799270  0.47127883  0.62301171     0.00800
H1768       H  0.34814691  0.46511959  0.61670059     0.08500
H1769       H  0.30949888  0.47668875  0.62579886     0.07600
N1770       N  0.33857131  0.41570627  0.61783306    -0.36300
N1771       N  0.32939030  0.40702003  0.61975259    -0.28500
C1772       C  0.33478351  0.39518901  0.61979755    -0.03700
C1773       C  0.34800720  0.39648285  0.61803613     0.04900
C1774       C  0.35001584  0.40963966  0.61682590     0.03000
H1775       H  0.32950005  0.38630821  0.62132072     0.08100
H1776       H  0.35919661  0.41449357  0.61564344     0.07000
N1777       N  0.34667834  0.58699375  0.66816476    -0.27400
N1778       N  0.34916798  0.57486157  0.67120963    -0.35300
C1779       C  0.34876768  0.57351200  0.68409562     0.00900
C1780       C  0.34549921  0.58528213  0.68949142     0.06900
C1781       C  0.34429674  0.59362463  0.67907548    -0.06200
H1782       H  0.35021753  0.56447220  0.68911451     0.07600
H1783       H  0.34152233  0.60368433  0.67937601     0.08800
Cu1784     Cu  0.35058246  0.56017038  0.65782556     0.44200
Cu1785     Cu  0.34653405  0.59374372  0.64923580     0.42000
Cu1786     Cu  0.35003089  0.56901714  0.62435996     0.43900
N1787       N  0.34834996  0.54694725  0.64307267    -0.34800
N1788       N  0.34854822  0.55008709  0.63071963    -0.29100
C1789       C  0.34648019  0.53940805  0.62363478    -0.05200
C1790       C  0.34465684  0.52907697  0.63195709     0.07000
C1791       C  0.34587214  0.53426966  0.64420554     0.00800
H1792       H  0.34601776  0.53924749  0.61320704     0.08500
H1793       H  0.34470858  0.52926688  0.65330017     0.07600
N1794       N  0.34968404  0.58869581  0.62064163    -0.36300
N1795       N  0.34831940  0.59768820  0.62960504    -0.28500
C1796       C  0.34851361  0.60936720  0.62389933    -0.03700
C1797       C  0.35002814  0.60761009  0.61074639     0.04900
C1798       C  0.35072997  0.59440569  0.60902729     0.03000
H1799       H  0.34764226  0.61846455  0.62894638     0.08100
H1800       H  0.35197455  0.58931895  0.59999617     0.07000
N1801       N  0.14750768  0.40903361  0.76900388    -0.27400
N1802       N  0.14938383  0.42119273  0.76563644    -0.35300
C1803       C  0.14940144  0.42209890  0.75271441     0.00900
C1804       C  0.14732878  0.40996032  0.74756616     0.06900
C1805       C  0.14605823  0.40190169  0.75822243    -0.06200
H1806       H  0.15143905  0.43087621  0.74742745     0.07600
H1807       H  0.14474241  0.39154698  0.75815403     0.08800
Cu1808     Cu  0.15329163  0.43593370  0.77847743     0.44200
Cu1809     Cu  0.14898561  0.40273783  0.78807231     0.42000
Cu1810     Cu  0.16056364  0.42709833  0.81112795     0.43900
N1811       N  0.15923431  0.44908366  0.79222870    -0.34800
N1812       N  0.16234522  0.44584424  0.80416386    -0.29100
C1813       C  0.16601207  0.45652628  0.81058270    -0.05200
C1814       C  0.16505329  0.46698379  0.80227974     0.07000
C1815       C  0.16072317  0.46188318  0.79073741     0.00800
H1816       H  0.16894594  0.45670412  0.82059950     0.08500
H1817       H  0.15864899  0.46711419  0.78194288     0.07600
N1818       N  0.15655568  0.40800111  0.81588647    -0.36300
N1819       N  0.15239483  0.39921170  0.80760399    -0.28500
C1820       C  0.15056334  0.38800785  0.81393859    -0.03700
C1821       C  0.15361855  0.38984338  0.82681896     0.04900
C1822       C  0.15737874  0.40262947  0.82769005     0.03000
H1823       H  0.14712914  0.37919850  0.80951833     0.08100
H1824       H  0.16029900  0.40771898  0.83632016     0.07000
N1825       N  0.33657778  0.59960256  0.76427438    -0.27400
N1826       N  0.32407010  0.59853988  0.76194580    -0.35300
C1827       C  0.32225524  0.59689556  0.74921045     0.00900
C1828       C  0.33420931  0.59659991  0.74321369     0.06900
C1829       C  0.34305894  0.59838457  0.75308516    -0.06200
H1830       H  0.31292317  0.59550812  0.74472169     0.07600
H1831       H  0.35347953  0.59834996  0.75226051     0.08800
Cu1832     Cu  0.31013732  0.59746088  0.77624193     0.44200
Cu1833     Cu  0.34430239  0.60199423  0.78264041     0.42000
Cu1834     Cu  0.32130601  0.60071373  0.80905475     0.43900
N1835       N  0.29829986  0.59515790  0.79218556    -0.34800
N1836       N  0.30228889  0.59661155  0.80421216    -0.29100
C1837       C  0.29225976  0.59465743  0.81224751    -0.05200
C1838       C  0.28146910  0.59175374  0.80491141     0.07000
C1839       C  0.28568446  0.59209985  0.79224214     0.00800
H1840       H  0.29278034  0.59531823  0.82265456     0.08500
H1841       H  0.27998651  0.59028989  0.78367858     0.07600
N1842       N  0.34104260  0.60328457  0.81155491    -0.36300
N1843       N  0.34948115  0.60364105  0.80196476    -0.28500
C1844       C  0.36147770  0.60456236  0.80691262    -0.03700
C1845       C  0.36049420  0.60483407  0.82022909     0.04900
C1846       C  0.34742835  0.60400665  0.82283314     0.03000
H1847       H  0.37026730  0.60467801  0.80126163     0.08100
H1848       H  0.34292778  0.60352146  0.83224734     0.07000
N1849       N  0.20818478  0.57979122  0.82450818    -0.27400
N1850       N  0.21144803  0.56774559  0.82195022    -0.35300
C1851       C  0.22418558  0.56716763  0.81963547     0.00900
C1852       C  0.22931098  0.57942199  0.82094088     0.06900
C1853       C  0.21887348  0.58718341  0.82417839    -0.06200
H1854       H  0.22922900  0.55855699  0.81656198     0.07600
H1855       H  0.21891441  0.59753472  0.82550816     0.08800
Cu1856     Cu  0.19838613  0.55283050  0.82039691     0.44200
Cu1857     Cu  0.18906426  0.58567647  0.82576922     0.42000
Cu1858     Cu  0.16462428  0.56069797  0.81924591     0.43900
N1859       N  0.18412327  0.53928262  0.81748124    -0.34800
N1860       N  0.17169512  0.54207070  0.81670190    -0.29100
C1861       C  0.16512805  0.53118180  0.81398847    -0.05200
C1862       C  0.17389520  0.52109800  0.81309739     0.07000
C1863       C  0.18581683  0.52660821  0.81542635     0.00800
H1864       H  0.15478032  0.53066424  0.81263043     0.08500
H1865       H  0.19508556  0.52178484  0.81546272     0.07600
N1866       N  0.16056566  0.58021259  0.82174979    -0.36300
N1867       N  0.16939548  0.58918269  0.82397135    -0.28500
C1868       C  0.16358062  0.60076999  0.82455443    -0.03700
C1869       C  0.15046287  0.59903451  0.82273059     0.04900
C1870       C  0.14889277  0.58588155  0.82100005     0.03000
H1871       H  0.16856106  0.60982309  0.82607925     0.08100
H1872       H  0.13993068  0.58080918  0.81923893     0.07000
N1873       N  0.94522520  0.91809828  0.06404289    -0.27400
N1874       N  0.94804159  0.92969168  0.06857247    -0.35300
C1875       C  0.96091142  0.93079648  0.06974489     0.00900
C1876       C  0.96654739  0.91942601  0.06564248     0.06900
C1877       C  0.95631361  0.91154257  0.06213561    -0.06200
H1878       H  0.96585879  0.93954708  0.07257697     0.07600
H1879       H  0.95692034  0.90202551  0.05788852     0.08800
Cu1880     Cu  0.93475378  0.94448851  0.07068441     0.44200
Cu1881     Cu  0.92640773  0.91234030  0.05982284     0.42000
Cu1882     Cu  0.90236544  0.93810067  0.06007230     0.43900
N1883       N  0.92110919  0.95887183  0.06799108    -0.34800
N1884       N  0.90937035  0.95661485  0.06353110    -0.29100
C1885       C  0.90332835  0.96796733  0.06165536    -0.05200
C1886       C  0.91163563  0.97785878  0.06518750     0.07000
C1887       C  0.92280845  0.97168875  0.06920427     0.00800
H1888       H  0.89367834  0.96896383  0.05778282     0.08500
H1889       H  0.93163901  0.97618943  0.07248848     0.07600
N1890       N  0.89786844  0.91860827  0.05814074    -0.36300
N1891       N  0.90660597  0.90928485  0.05790933    -0.28500
C1892       C  0.90050698  0.89781942  0.05749212    -0.03700
C1893       C  0.88732395  0.90000465  0.05752052     0.04900
C1894       C  0.88599619  0.91329290  0.05791515     0.03000
H1895       H  0.90530179  0.88854533  0.05780727     0.08100
H1896       H  0.87706248  0.91867652  0.05853661     0.07000
N1897       N  0.89598039  0.09174204  0.02362863    -0.27400
N1898       N  0.89806426  0.07961043  0.02032030    -0.35300
C1899       C  0.90033647  0.07904873  0.00754609     0.00900
C1900       C  0.89960304  0.09143235  0.00254360     0.06900
C1901       C  0.89680043  0.09923800  0.01303245    -0.06200
H1902       H  0.90257532  0.07030230  0.00230833     0.07600
H1903       H  0.89565300  0.10961413  0.01300018     0.08800
Cu1904     Cu  0.89805350  0.06456979  0.03358126     0.44200
Cu1905     Cu  0.89304086  0.09732990  0.04264220     0.42000
Cu1906     Cu  0.89524473  0.07239522  0.06777035     0.43900
N1907       N  0.89834663  0.05092226  0.04826803    -0.34800
N1908       N  0.89758845  0.05359288  0.06073252    -0.29100
C1909       C  0.89910364  0.04253392  0.06747302    -0.05200
C1910       C  0.90087882  0.03247439  0.05880369     0.07000
C1911       C  0.90023777  0.03818716  0.04675523     0.00800
H1912       H  0.89934875  0.04192382  0.07789293     0.08500
H1913       H  0.90152921  0.03347406  0.03753050     0.07600
N1914       N  0.89331081  0.09217963  0.07148156    -0.36300
N1915       N  0.89234257  0.10104861  0.06232347    -0.28500
C1916       C  0.89180223  0.11279826  0.06780142    -0.03700
C1917       C  0.89253405  0.11135471  0.08104451     0.04900
C1918       C  0.89343779  0.09814402  0.08304901     0.03000
H1919       H  0.89131639  0.12178608  0.06249802     0.08100
H1920       H  0.89452030  0.09326820  0.09222288     0.07000
N1921       N  0.04262955  0.91062920  0.05926470    -0.27400
N1922       N  0.03995455  0.90945745  0.04683855    -0.35300
C1923       C  0.02710035  0.91005379  0.04517159     0.00900
C1924       C  0.02133500  0.91178640  0.05708262     0.06900
C1925       C  0.03147083  0.91208534  0.06582520    -0.06200
H1926       H  0.02230615  0.90954022  0.03591205     0.07600
H1927       H  0.03080051  0.91354996  0.07613818     0.08800
Cu1928     Cu  0.05370364  0.90774508  0.03240359     0.44200
Cu1929     Cu  0.06143953  0.91053233  0.06651821     0.42000
Cu1930     Cu  0.08673500  0.90592774  0.04231031     0.43900
N1931       N  0.06890981  0.90610599  0.01950417    -0.34800
N1932       N  0.08109067  0.90509315  0.02315209    -0.29100
C1933       C  0.08866063  0.90458895  0.01260418    -0.05200
C1934       C  0.08085766  0.90549083  0.00178207     0.07000
C1935       C  0.06839534  0.90641286  0.00654551     0.00800
H1936       H  0.09909840  0.90410381  0.01281300     0.08500
H1937       H  0.05963636  0.90769519  0.00099896     0.07600
N1938       N  0.09022448  0.90821069  0.06186500    -0.36300
N1939       N  0.08115733  0.90996518  0.07070643    -0.28500
C1940       C  0.08684255  0.91102175  0.08235846    -0.03700
C1941       C  0.10006173  0.90986386  0.08070066     0.04900
C1942       C  0.10185455  0.90808916  0.06762444     0.03000
H1943       H  0.08173552  0.91232707  0.09137457     0.08100
H1944       H  0.11094607  0.90667956  0.06266755     0.07000
N1945       N  0.91248052  0.10550019  0.92790858    -0.27400
N1946       N  0.92429584  0.10232245  0.93153087    -0.35300
C1947       C  0.92444902  0.10042476  0.94435847     0.00900
C1948       C  0.91217257  0.10263788  0.94917553     0.06900
C1949       C  0.90482823  0.10589456  0.93843648    -0.06200
H1950       H  0.93284253  0.09733866  0.94976076     0.07600
H1951       H  0.89461663  0.10809470  0.93824174     0.08800
Cu1952     Cu  0.93962965  0.10013450  0.91888031     0.44200
Cu1953     Cu  0.90734957  0.10773087  0.90856410     0.42000
Cu1954     Cu  0.93265811  0.10019410  0.88480516     0.43900
N1955       N  0.95354162  0.09710584  0.90484555    -0.34800
N1956       N  0.95102548  0.09667020  0.89234928    -0.29100
C1957       C  0.96202149  0.09385156  0.88597546    -0.05200
C1958       C  0.97194227  0.09257277  0.89490169     0.07000
C1959       C  0.96617032  0.09477414  0.90674781     0.00800
H1960       H  0.96273746  0.09275557  0.87561830     0.08500
H1961       H  0.97079917  0.09461234  0.91610515     0.07600
N1962       N  0.91347833  0.10431714  0.88008859    -0.36300
N1963       N  0.90440784  0.10717336  0.88864678    -0.28500
C1964       C  0.89304107  0.10853919  0.88247126    -0.03700
C1965       C  0.89504409  0.10650673  0.86943609     0.04900
C1966       C  0.90807930  0.10379715  0.86826978     0.03000
H1967       H  0.88388213  0.11027070  0.88719330     0.08100
H1968       H  0.91315152  0.10110461  0.85954655     0.07000
N1969       N  0.09383533  0.94836527  0.88766187    -0.27400
N1970       N  0.09105360  0.95167967  0.89966180    -0.35300
C1971       C  0.08911956  0.96449618  0.90016663     0.00900
C1972       C  0.09083225  0.96954228  0.88791254     0.06900
C1973       C  0.09379249  0.95902940  0.88020244    -0.06200
H1974       H  0.08690502  0.96980952  0.90887505     0.07600
H1975       H  0.09602274  0.95915880  0.87000401     0.08800
Cu1976     Cu  0.09084759  0.93876568  0.91498067     0.44200
Cu1977     Cu  0.09784436  0.92943989  0.88232997     0.42000
Cu1978     Cu  0.10105856  0.90594916  0.90849970     0.43900
N1979       N  0.09233379  0.92458743  0.92906064    -0.34800
N1980       N  0.09646796  0.91271807  0.92685072    -0.29100
C1981       C  0.09640562  0.90608060  0.93803994    -0.05200
C1982       C  0.09194926  0.91415683  0.94772811     0.07000
C1983       C  0.08944239  0.92578761  0.94165056     0.00800
H1984       H  0.09927779  0.89609315  0.93902681     0.08500
H1985       H  0.08571727  0.93448746  0.94605725     0.07600
N1986       N  0.10214111  0.90126508  0.88898465    -0.36300
N1987       N  0.10077088  0.90977180  0.87954379    -0.28500
C1988       C  0.10078742  0.90350555  0.86817564    -0.03700
C1989       C  0.10224971  0.89045097  0.87054949     0.04900
C1990       C  0.10310442  0.88936642  0.88383538     0.03000
H1991       H  0.09944153  0.90807188  0.85888045     0.08100
H1992       H  0.10384299  0.88053928  0.88936639     0.07000
N1993       N  0.08503892  0.04548904  0.87772180    -0.27400
N1994       N  0.07279919  0.04235745  0.87948479    -0.35300
C1995       C  0.07182067  0.02947662  0.88048493     0.00900
C1996       C  0.08400029  0.02413627  0.87907686     0.06900
C1997       C  0.09216614  0.03461768  0.87730038    -0.06200
H1998       H  0.06288162  0.02436026  0.88225587     0.07600
H1999       H  0.10252086  0.03439439  0.87593155     0.08800
Cu2000     Cu  0.05793687  0.05568163  0.88053896     0.44200
Cu2001     Cu  0.09121653  0.06452961  0.87708922     0.42000
Cu2002     Cu  0.06645014  0.08913353  0.88397491     0.43900
N2003       N  0.04442515  0.07023867  0.88273994    -0.34800
N2004       N  0.04748312  0.08247092  0.88463576    -0.29100
C2005       C  0.03656981  0.08923408  0.88673288    -0.05200
C2006       C  0.02613537  0.08085115  0.88599388     0.07000
C2007       C  0.03152487  0.06891472  0.88334696     0.00800
H2008       H  0.03626315  0.09945650  0.88881368     0.08500
H2009       H  0.02645999  0.05985784  0.88220192     0.07600
N2010       N  0.08600466  0.09302781  0.88127056    -0.36300
N2011       N  0.09482399  0.08417487  0.87855863    -0.28500
C2012       C  0.10639773  0.08993582  0.87732012    -0.03700
C2013       C  0.10479991  0.10299886  0.87935800     0.04900
C2014       C  0.09178384  0.10465356  0.88184939     0.03000
H2015       H  0.11534983  0.08495294  0.87527278     0.08100
H2016       H  0.08688905  0.11363057  0.88396842     0.07000
N2017       N  0.90666016  0.30743362  0.13644380    -0.27400
N2018       N  0.91883861  0.30477569  0.13922412    -0.35300
C2019       C  0.92008924  0.29197294  0.14094644     0.00900
C2020       C  0.90815620  0.28624661  0.13907219     0.06900
C2021       C  0.89984934  0.29635030  0.13627034    -0.06200
H2022       H  0.92911485  0.28712874  0.14300422     0.07600
H2023       H  0.88969644  0.29565404  0.13390291     0.08800
Cu2024     Cu  0.93353081  0.31842307  0.13920351     0.44200
Cu2025     Cu  0.90015474  0.32600076  0.13237642     0.42000
Cu2026     Cu  0.92505747  0.35038583  0.12806051     0.43900
N2027       N  0.94688725  0.33308071  0.13624085    -0.34800
N2028       N  0.94384514  0.34459637  0.13166258    -0.29100
C2029       C  0.95465826  0.35170250  0.13049538    -0.05200
C2030       C  0.96500363  0.34433558  0.13464543     0.07000
C2031       C  0.95971007  0.33259293  0.13822694     0.00800
H2032       H  0.95493870  0.36154518  0.12702254     0.08500
H2033       H  0.96480285  0.32431880  0.14205751     0.07600
N2034       N  0.90545705  0.35427925  0.12734303    -0.36300
N2035       N  0.89637375  0.34543059  0.12894118    -0.28500
C2036       C  0.88474650  0.35122055  0.12859011    -0.03700
C2037       C  0.88664897  0.36429007  0.12671115     0.04900
C2038       C  0.89986402  0.36592216  0.12598503     0.03000
H2039       H  0.87560674  0.34633446  0.12993341     0.08100
H2040       H  0.90504009  0.37492639  0.12486358     0.07000
N2041       N  0.04012333  0.35907025  0.13939393    -0.27400
N2042       N  0.03750336  0.35829957  0.15185802    -0.35300
C2043       C  0.02469510  0.35691968  0.15342548     0.00900
C2044       C  0.01895250  0.35688873  0.14137919     0.06900
C2045       C  0.02901843  0.35834021  0.13269882    -0.06200
H2046       H  0.01995501  0.35555495  0.16263602     0.07600
H2047       H  0.02837686  0.35837061  0.12227752     0.08800
Cu2048     Cu  0.05143050  0.35812653  0.16617425     0.44200
Cu2049     Cu  0.05874216  0.35952560  0.13205374     0.42000
Cu2050     Cu  0.08452885  0.35595665  0.15563354     0.43900
N2051       N  0.06687886  0.35635477  0.17870661    -0.34800
N2052       N  0.07900102  0.35519656  0.17487330    -0.29100
C2053       C  0.08650586  0.35293669  0.18523229    -0.05200
C2054       C  0.07871076  0.35269853  0.19609254     0.07000
C2055       C  0.06634449  0.35499232  0.19159326     0.00800
H2056       H  0.09678444  0.35110890  0.18483367     0.08500
H2057       H  0.05753171  0.35510812  0.19720411     0.07600
N2058       N  0.08751297  0.35704564  0.13585186    -0.36300
N2059       N  0.07815009  0.35835696  0.12726380    -0.28500
C2060       C  0.08334795  0.35872470  0.11536263    -0.03700
C2061       C  0.09659936  0.35762663  0.11655118     0.04900
C2062       C  0.09891083  0.35658393  0.12964594     0.03000
H2063       H  0.07789665  0.35978693  0.10651812     0.08100
H2064       H  0.10820367  0.35558410  0.13431944     0.07000
N2065       N  0.90677721  0.17106505  0.17615083    -0.27400
N2066       N  0.90948200  0.18320557  0.17892290    -0.35300
C2067       C  0.91241124  0.18416270  0.19150339     0.00900
C2068       C  0.91135581  0.17205381  0.19701512     0.06900
C2069       C  0.90780007  0.16394503  0.18698705    -0.06200
H2070       H  0.91479796  0.19309075  0.19635821     0.07600
H2071       H  0.90584991  0.15370326  0.18757876     0.08800
Cu2072     Cu  0.90781808  0.19808894  0.16580313     0.44200
Cu2073     Cu  0.90173764  0.16525334  0.15763762     0.42000
Cu2074     Cu  0.89780840  0.19090999  0.13319895     0.43900
N2075       N  0.90375731  0.21210472  0.15225064    -0.34800
N2076       N  0.89994746  0.20974103  0.14030564    -0.29100
C2077       C  0.89820426  0.22112456  0.13419082    -0.05200
C2078       C  0.90105570  0.23103386  0.14276870     0.07000
C2079       C  0.90454165  0.22490433  0.15407248     0.00800
H2080       H  0.89526257  0.22212203  0.12422455     0.08500
H2081       H  0.90765570  0.22943350  0.16294695     0.07600
N2082       N  0.89696513  0.17105826  0.12927712    -0.36300
N2083       N  0.89829709  0.16194132  0.13815074    -0.28500
C2084       C  0.89756047  0.15030172  0.13245058    -0.03700
C2085       C  0.89566988  0.15208571  0.11936647     0.04900
C2086       C  0.89534997  0.16536664  0.11768373     0.03000
H2087       H  0.89855307  0.14118131  0.13744654     0.08100
H2088       H  0.89414531  0.17050475  0.10867111     0.07000
N2089       N  0.91866725  0.15877294  0.27221868    -0.27400
N2090       N  0.93071121  0.16217571  0.26971624    -0.35300
C2091       C  0.93200689  0.16438264  0.25701423     0.00900
C2092       C  0.92021265  0.16224204  0.25118713     0.06900
C2093       C  0.91193592  0.15871584  0.26110122    -0.06200
H2094       H  0.94088186  0.16736547  0.25236724     0.07600
H2095       H  0.90179532  0.15633150  0.26029540     0.08800
Cu2096     Cu  0.94500256  0.16315480  0.28349768     0.44200
Cu2097     Cu  0.91230563  0.15447155  0.29075621     0.42000
Cu2098     Cu  0.93733805  0.15317605  0.31586896     0.43900
N2099       N  0.95863870  0.16098637  0.29779800    -0.34800
N2100       N  0.95603930  0.15698514  0.30962975    -0.29100
C2101       C  0.96720472  0.15586616  0.31621114    -0.05200
C2102       C  0.97724349  0.15935895  0.30806416     0.07000
C2103       C  0.97143087  0.16258860  0.29651752     0.00800
H2104       H  0.96796479  0.15265047  0.32611600     0.08500
H2105       H  0.97617551  0.16573269  0.28775448     0.07600
N2106       N  0.91771769  0.15051631  0.31924874    -0.36300
N2107       N  0.90871050  0.15100650  0.31019300    -0.28500
C2108       C  0.89704547  0.14964929  0.31575361    -0.03700
C2109       C  0.89879176  0.14823603  0.32890403     0.04900
C2110       C  0.91199386  0.14882376  0.33079160     0.03000
H2111       H  0.88793732  0.15013568  0.31066024     0.08100
H2112       H  0.91703078  0.14857624  0.33993605     0.07000
N2113       N  0.09128365  0.20178475  0.30949354    -0.27400
N2114       N  0.07897309  0.20486111  0.31092091    -0.35300
C2115       C  0.07765283  0.21772533  0.31012617     0.00900
C2116       C  0.08969085  0.22307133  0.30803394     0.06900
C2117       C  0.09815372  0.21270402  0.30770219    -0.06200
H2118       H  0.06854011  0.22279946  0.31069757     0.07600
H2119       H  0.10845455  0.21305364  0.30599080     0.08800
Cu2120     Cu  0.06424276  0.19157046  0.31291543     0.44200
Cu2121     Cu  0.09771596  0.18271547  0.30968796     0.42000
Cu2122     Cu  0.07239116  0.15804495  0.31380453     0.43900
N2123       N  0.05060068  0.17705152  0.31367949    -0.34800
N2124       N  0.05351481  0.16466142  0.31432889    -0.29100
C2125       C  0.04250793  0.15774909  0.31462003    -0.05200
C2126       C  0.03218230  0.16624050  0.31397760     0.07000
C2127       C  0.03770811  0.17837959  0.31334903     0.00800
H2128       H  0.04206723  0.14732725  0.31506402     0.08500
H2129       H  0.03272062  0.18751671  0.31250389     0.07600
N2130       N  0.09194977  0.15408001  0.31218896    -0.36300
N2131       N  0.10110056  0.16289618  0.31071824    -0.28500
C2132       C  0.11264419  0.15692802  0.31029739    -0.03700
C2133       C  0.11062007  0.14378467  0.31151694     0.04900
C2134       C  0.09741983  0.14232119  0.31269110     0.03000
H2135       H  0.12184040  0.16179953  0.30932748     0.08100
H2136       H  0.09218409  0.13337938  0.31402851     0.07000
N2137       N  0.09629093  0.33856484  0.26912497    -0.27400
N2138       N  0.09919876  0.32683475  0.26507767    -0.35300
C2139       C  0.09801650  0.32645210  0.25216033     0.00900
C2140       C  0.09402575  0.33849545  0.24791389     0.06900
C2141       C  0.09305565  0.34593073  0.25894634    -0.06200
H2142       H  0.09934007  0.31787755  0.24635690     0.07600
H2143       H  0.08972639  0.35580731  0.25959218     0.08800
Cu2144     Cu  0.10241156  0.31149040  0.27757137     0.44200
Cu2145     Cu  0.09601044  0.34365087  0.28835521     0.42000
Cu2146     Cu  0.09599824  0.31753347  0.31164597     0.43900
N2147       N  0.10064687  0.29708546  0.29140784    -0.34800
N2148       N  0.09746736  0.29917512  0.30359197    -0.29100
C2149       C  0.09548796  0.28773038  0.30944592    -0.05200
C2150       C  0.09765700  0.27795704  0.30055995     0.07000
C2151       C  0.10100889  0.28429761  0.28927151     0.00800
H2152       H  0.09240786  0.28662079  0.31936358     0.08500
H2153       H  0.10314871  0.27994272  0.28003025     0.07600
N2154       N  0.09668236  0.33698674  0.31666080    -0.36300
N2155       N  0.09677581  0.34641363  0.30804509    -0.28500
C2156       C  0.09769420  0.35779911  0.31414995    -0.03700
C2157       C  0.09821301  0.35546684  0.32724481     0.04900
C2158       C  0.09752353  0.34218068  0.32854486     0.03000
H2159       H  0.09797756  0.36709737  0.30939639     0.08100
H2160       H  0.09772682  0.33671006  0.33744085     0.07000
N2161       N  0.09315817  0.41818825  0.42075089    -0.27400
N2162       N  0.08862576  0.42986660  0.42311269    -0.35300
C2163       C  0.08611994  0.43091149  0.43579992     0.00900
C2164       C  0.08920821  0.41929993  0.44163300     0.06900
C2165       C  0.09364554  0.41144941  0.43182554    -0.06200
H2166       H  0.08226628  0.43944253  0.44042278     0.07600
H2167       H  0.09687019  0.40155253  0.43264718     0.08800
Cu2168     Cu  0.08647115  0.44375870  0.40888188     0.44200
Cu2169     Cu  0.09789103  0.41191063  0.40250568     0.42000
Cu2170     Cu  0.09772940  0.43542066  0.37655422     0.43900
N2171       N  0.08816728  0.45683319  0.39383802    -0.34800
N2172       N  0.09295061  0.45406624  0.38232962    -0.29100
C2173       C  0.09379188  0.46503231  0.37538533    -0.05200
C2174       C  0.08920476  0.47514631  0.38285418     0.07000
C2175       C  0.08565290  0.46953220  0.39444168     0.00800
H2176       H  0.09756307  0.46560988  0.36566294     0.08500
H2177       H  0.08172716  0.47437053  0.40282022     0.07600
N2178       N  0.09974423  0.41562161  0.37374489    -0.36300
N2179       N  0.09979594  0.40715712  0.38330745    -0.28500
C2180       C  0.10019884  0.39515867  0.37843643    -0.03700
C2181       C  0.10040308  0.39608387  0.36516422     0.04900
C2182       C  0.10014360  0.40917366  0.36247658     0.03000
H2183       H  0.09994996  0.38640702  0.38413551     0.08100
H2184       H  0.09980261  0.41364401  0.35304298     0.07000
N2185       N  0.04970354  0.58934634  0.37876901    -0.27400
N2186       N  0.04551836  0.57748284  0.37669391    -0.35300
C2187       C  0.03267372  0.57714598  0.37860810     0.00900
C2188       C  0.02860409  0.58935571  0.38224913     0.06900
C2189       C  0.03968338  0.59683661  0.38223762    -0.06200
H2190       H  0.02678632  0.56856424  0.37775078     0.07600
H2191       H  0.04046085  0.60691794  0.38483148     0.08800
Cu2192     Cu  0.05773580  0.56209705  0.37274556     0.44200
Cu2193     Cu  0.06886750  0.59468418  0.37693574     0.42000
Cu2194     Cu  0.09200383  0.56929911  0.36992807     0.43900
N2195       N  0.07203021  0.54811444  0.37130673    -0.34800
N2196       N  0.08451377  0.55069074  0.37037289    -0.29100
C2197       C  0.09117087  0.53953276  0.37073668    -0.05200
C2198       C  0.08244572  0.52948252  0.37196692     0.07000
C2199       C  0.07042092  0.53527172  0.37228296     0.00800
H2200       H  0.10159408  0.53882164  0.37061393     0.08500
H2201       H  0.06121724  0.53053180  0.37371294     0.07600
N2202       N  0.09680748  0.58874127  0.37109854    -0.36300
N2203       N  0.08833803  0.59791081  0.37380820    -0.28500
C2204       C  0.09445904  0.60933455  0.37431065    -0.03700
C2205       C  0.10737071  0.60725848  0.37176766     0.04900
C2206       C  0.10857640  0.59412226  0.36978261     0.03000
H2207       H  0.08987559  0.61845103  0.37652989     0.08100
H2208       H  0.11737044  0.58884719  0.36778688     0.07000
N2209       N  0.95539732  0.60708471  0.39411544    -0.27400
N2210       N  0.95811219  0.60783900  0.40654905    -0.35300
C2211       C  0.97087329  0.60601777  0.40820683     0.00900
C2212       C  0.97641613  0.60388137  0.39622518     0.06900
C2213       C  0.96630633  0.60462965  0.38753341    -0.06200
H2214       H  0.97569530  0.60594790  0.41746389     0.07600
H2215       H  0.96679708  0.60320728  0.37720416     0.08800
Cu2216     Cu  0.94407459  0.61015822  0.42061665     0.44200
Cu2217     Cu  0.93695184  0.60900140  0.38668435     0.42000
Cu2218     Cu  0.91076724  0.61289440  0.40953001     0.43900
N2219       N  0.92820663  0.61094061  0.43278936    -0.34800
N2220       N  0.91611702  0.61214944  0.42884942    -0.29100
C2221       C  0.90823331  0.61154622  0.43917074    -0.05200
C2222       C  0.91572615  0.60970382  0.45009393     0.07000
C2223       C  0.92832201  0.60939988  0.44566308     0.00800
H2224       H  0.89780231  0.61184725  0.43868670     0.08500
H2225       H  0.93691407  0.60759238  0.45132229     0.07600
N2226       N  0.90818196  0.61215444  0.38964833    -0.36300
N2227       N  0.91778608  0.61083268  0.38133511    -0.28500
C2228       C  0.91296645  0.61044347  0.36929228    -0.03700
C2229       C  0.89967515  0.61148917  0.37005628     0.04900
C2230       C  0.89697249  0.61256703  0.38309863     0.03000
H2231       H  0.91870441  0.60929478  0.36063811     0.08100
H2232       H  0.88753047  0.61336823  0.38750898     0.07000
N2233       N  0.89839837  0.59471532  0.52335492    -0.27400
N2234       N  0.90267572  0.58313524  0.52012338    -0.35300
C2235       C  0.90587353  0.58315688  0.50755882     0.00900
C2236       C  0.90337287  0.59528424  0.50256800     0.06900
C2237       C  0.89862017  0.60237142  0.51285665    -0.06200
H2238       H  0.90974954  0.57493105  0.50242885     0.07600
H2239       H  0.89566478  0.61238504  0.51275580     0.08800
Cu2240     Cu  0.90348344  0.56753312  0.53259906     0.44200
Cu2241     Cu  0.89336963  0.59977984  0.54207870     0.42000
Cu2242     Cu  0.89344407  0.57334400  0.56515467     0.43900
N2243       N  0.90127300  0.55297914  0.54612964    -0.34800
N2244       N  0.89731842  0.55508782  0.55806879    -0.29100
C2245       C  0.89657267  0.54375791  0.56437141    -0.05200
C2246       C  0.90024187  0.53405988  0.55596501     0.07000
C2247       C  0.90316655  0.54024967  0.54449478     0.00800
H2248       H  0.89365555  0.54267244  0.57433928     0.08500
H2249       H  0.90648590  0.53583012  0.53563736     0.07600
N2250       N  0.89160352  0.59256208  0.57023729    -0.36300
N2251       N  0.89163645  0.60223069  0.56189504    -0.28500
C2252       C  0.89181222  0.61343370  0.56845168    -0.03700
C2253       C  0.89190890  0.61065129  0.58151935     0.04900
C2254       C  0.89168593  0.59733848  0.58228957     0.03000
H2255       H  0.89256003  0.62287451  0.56404668     0.08100
H2256       H  0.89225517  0.59154021  0.59095834     0.07000
N2257       N  0.94580236  0.42197432  0.56823278    -0.27400
N2258       N  0.94797599  0.43381303  0.56400021    -0.35300
C2259       C  0.96049055  0.43500427  0.56079926     0.00900
C2260       C  0.96659183  0.42338740  0.56320268     0.06900
C2261       C  0.95698240  0.41532389  0.56792798    -0.06200
H2262       H  0.96480475  0.44367013  0.55686655     0.07600
H2263       H  0.95800416  0.40531667  0.57073893     0.08800
Cu2264     Cu  0.93396546  0.44792499  0.56277265     0.44200
Cu2265     Cu  0.92740557  0.41544605  0.57317078     0.42000
Cu2266     Cu  0.90151015  0.43973131  0.57158413     0.43900
N2267       N  0.91916579  0.46123816  0.56354782    -0.34800
N2268       N  0.90721714  0.45842785  0.56705488    -0.29100
C2269       C  0.90015903  0.46935724  0.56707192    -0.05200
C2270       C  0.90812541  0.47946526  0.56339816     0.07000
C2271       C  0.92006458  0.47394571  0.56120728     0.00800
H2272       H  0.89006514  0.46993113  0.56971864     0.08500
H2273       H  0.92883201  0.47885183  0.55832489     0.07600
N2274       N  0.89847322  0.42005345  0.57413016    -0.36300
N2275       N  0.90776460  0.41129473  0.57483163    -0.28500
C2276       C  0.90235357  0.39948965  0.57551234    -0.03700
C2277       C  0.88907058  0.40089945  0.57517466     0.04900
C2278       C  0.88695416  0.41404068  0.57430723     0.03000
H2279       H  0.90769238  0.39051358  0.57565311     0.08100
H2280       H  0.87772348  0.41884870  0.57338727     0.07000
N2281       N  0.04141493  0.40972413  0.55316112    -0.27400
N2282       N  0.03875576  0.41207464  0.54090273    -0.35300
C2283       C  0.02598808  0.41407473  0.53961381     0.00900
C2284       C  0.02030727  0.41289814  0.55163258     0.06900
C2285       C  0.03036456  0.41012743  0.56000366    -0.06200
H2286       H  0.02122942  0.41646906  0.53063207     0.07600
H2287       H  0.02972984  0.40880091  0.57033944     0.08800
Cu2288     Cu  0.05255785  0.41253155  0.52646386     0.44200
Cu2289     Cu  0.06008651  0.40684520  0.56003397     0.42000
Cu2290     Cu  0.08547787  0.40568498  0.53573939     0.43900
N2291       N  0.06760249  0.41079634  0.51343501    -0.34800
N2292       N  0.07960661  0.40797067  0.51673429    -0.29100
C2293       C  0.08692697  0.40742396  0.50600871    -0.05200
C2294       C  0.07913144  0.41009906  0.49548956     0.07000
C2295       C  0.06696028  0.41218701  0.50056285     0.00800
H2296       H  0.09718326  0.40543348  0.50590026     0.08500
H2297       H  0.05830088  0.41471305  0.49529280     0.07600
N2298       N  0.08888238  0.40496487  0.55546415    -0.36300
N2299       N  0.07967472  0.40534465  0.56432495    -0.28500
C2300       C  0.08515818  0.40500654  0.57610320    -0.03700
C2301       C  0.09840484  0.40440744  0.57452990     0.04900
C2302       C  0.10044549  0.40440267  0.56135966     0.03000
H2303       H  0.07990861  0.40531621  0.58512793     0.08100
H2304       H  0.10965458  0.40411773  0.55642545     0.07000
C2305       C  0.98369687  0.41009487  0.55227349    -0.02000
C2306       C  0.98035203  0.42030025  0.56066478     0.07700
C2307       C  0.99020386  0.42797334  0.56615076    -0.02100
C2308       C  0.00325324  0.42551935  0.56321185    -0.02100
C2309       C  0.00658865  0.41526530  0.55491553     0.07800
C2310       C  0.99677363  0.40755988  0.54945818    -0.02300
Br2311     Br  0.00122069  0.39337265  0.53822982    -0.00900
Br2312     Br  0.97040771  0.40003826  0.54391541    -0.00900
Br2313     Br  0.01649990  0.43678047  0.56996377    -0.00900
Br2314     Br  0.98595913  0.44172542  0.57799523    -0.00900
C2315       C  0.89411961  0.51112468  0.55142340    -0.02000
C2316       C  0.90134701  0.52009228  0.55869135     0.07700
C2317       C  0.91001443  0.51565072  0.56820861    -0.02100
C2318       C  0.91177298  0.50232380  0.57011974    -0.02100
C2319       C  0.90499452  0.49335495  0.56244141     0.07800
C2320       C  0.89596764  0.49778103  0.55326265    -0.02300
Br2321     Br  0.88665268  0.48562949  0.54265911    -0.00900
Br2322     Br  0.88150944  0.51710285  0.53906219    -0.00900
Br2323     Br  0.92338504  0.49636902  0.58344600    -0.00900
Br2324     Br  0.92016177  0.52773930  0.57812266    -0.00900
C2325       C  0.91633562  0.61410302  0.47383496    -0.02000
C2326       C  0.91142039  0.60682596  0.46343076     0.07700
C2327       C  0.90322898  0.59620596  0.46592166    -0.02100
C2328       C  0.90023971  0.59273980  0.47872122    -0.02100
C2329       C  0.90564554  0.59966103  0.48913823     0.07800
C2330       C  0.91363347  0.61042653  0.48664062    -0.02300
Br2331     Br  0.92176879  0.61963237  0.50065784    -0.00900
Br2332     Br  0.92660666  0.62933161  0.47057396    -0.00900
Br2333     Br  0.88850213  0.57857283  0.48188594    -0.00900
Br2334     Br  0.89671497  0.58573310  0.45194218    -0.00900
C2335       C  0.99693062  0.60790077  0.38403754    -0.02000
C2336       C  0.99001995  0.60059219  0.39323692     0.07700
C2337       C  0.99596872  0.58983642  0.39912731    -0.02100
C2338       C  0.00869493  0.58639376  0.39579087    -0.02100
C2339       C  0.01540715  0.59335334  0.38615583     0.07800
C2340       C  0.00946763  0.60415734  0.38032013    -0.02300
Br2341     Br  0.01809978  0.61351173  0.36667711    -0.00900
Br2342     Br  0.98945755  0.62341558  0.37685781    -0.00900
Br2343     Br  0.01704033  0.57246600  0.40498820    -0.00900
Br2344     Br  0.98654782  0.57925855  0.41128253    -0.00900
C2345       C  0.09172846  0.51166244  0.38543557    -0.02000
C2346       C  0.08523229  0.51564900  0.37416369     0.07700
C2347       C  0.08072277  0.50634104  0.36534520    -0.02100
C2348       C  0.08199825  0.49308999  0.36812644    -0.02100
C2349       C  0.08841870  0.48905553  0.37947024     0.07800
C2350       C  0.09363062  0.49843445  0.38790282    -0.02300
Br2351     Br  0.10385664  0.49332426  0.40264662    -0.00900
Br2352     Br  0.09733383  0.52425270  0.39798011    -0.00900
Br2353     Br  0.07400231  0.48064714  0.35680033    -0.00900
Br2354     Br  0.07302436  0.51179167  0.34927398    -0.00900
C2355       C  0.09470600  0.42271814  0.46482104    -0.02000
C2356       C  0.08764491  0.41595493  0.45538196     0.07700
C2357       C  0.07874901  0.40635906  0.45913655    -0.02100
C2358       C  0.07655635  0.40391824  0.47231362    -0.02100
C2359       C  0.08290218  0.41136954  0.48178073     0.07800
C2360       C  0.09218353  0.42061783  0.47799892    -0.02300
Br2361     Br  0.10087690  0.43109744  0.49070765    -0.00900
Br2362     Br  0.10808962  0.43464483  0.45966890    -0.00900
Br2363     Br  0.06511014  0.39008904  0.47736973    -0.00900
Br2364     Br  0.06899128  0.39703380  0.44628704    -0.00900
C2365       C  0.11017272  0.37315953  0.33845984    -0.02000
C2366       C  0.09909830  0.36528221  0.33751776     0.07700
C2367       C  0.08859420  0.36728167  0.34593884    -0.02100
C2368       C  0.08904285  0.37731390  0.35507560    -0.02100
C2369       C  0.10003122  0.38533457  0.35584860     0.07800
C2370       C  0.11066875  0.38310484  0.34767849    -0.02300
Br2371     Br  0.12612057  0.39338029  0.34947636    -0.00900
Br2372     Br  0.12481264  0.37016109  0.32731776    -0.00900
Br2373     Br  0.07431210  0.38043755  0.36607440    -0.00900
Br2374     Br  0.07326757  0.35676518  0.34446685    -0.00900
C2375       C  0.08678703  0.24325429  0.29514889    -0.02000
C2376       C  0.09248153  0.23689817  0.30574199     0.07700
C2377       C  0.10007898  0.24395423  0.31453434    -0.02100
C2378       C  0.10191025  0.25733603  0.31279414    -0.02100
C2379       C  0.09587908  0.26381884  0.30238974     0.07800
C2380       C  0.08818451  0.25668430  0.29364759    -0.02300
Br2381     Br  0.07857847  0.26524599  0.28013564    -0.00900
Br2382     Br  0.07739754  0.23345462  0.28235530    -0.00900
Br2383     Br  0.11304709  0.26657059  0.32453451    -0.00900
Br2384     Br  0.10757856  0.23536396  0.32927453    -0.00900
C2385       C  0.99988831  0.15287351  0.30277710    -0.02000
C2386       C  0.99126292  0.15973907  0.31077893     0.07700
C2387       C  0.99614956  0.16780083  0.32058144    -0.02100
C2388       C  0.00957487  0.16939552  0.32201715    -0.02100
C2389       C  0.01819783  0.16322942  0.31343082     0.07800
C2390       C  0.01329728  0.15480276  0.30390388    -0.02300
Br2391     Br  0.02469950  0.14667015  0.29158814    -0.00900
Br2392     Br  0.99335073  0.14057071  0.29037997    -0.00900
Br2393     Br  0.01607894  0.17993395  0.33595161    -0.00900
Br2394     Br  0.98452420  0.17739750  0.33154865    -0.00900
C2395       C  0.90577996  0.17553648  0.22029021    -0.02000
C2396       C  0.91296741  0.16881126  0.21084921     0.07700
C2397       C  0.92203501  0.15940627  0.21472766    -0.02100
C2398       C  0.92397333  0.15685204  0.22793865    -0.02100
C2399       C  0.91719030  0.16398442  0.23735270     0.07800
C2400       C  0.90807617  0.17331750  0.23348775    -0.02300
Br2401     Br  0.89933945  0.18376713  0.24621756    -0.00900
Br2402     Br  0.89243329  0.18756020  0.21526070    -0.00900
Br2403     Br  0.93577187  0.14336892  0.23311763    -0.00900
Br2404     Br  0.93248740  0.15059166  0.20206191    -0.00900
C2405       C  0.09570528  0.35302463  0.22858841    -0.02000
C2406       C  0.09006686  0.34220689  0.23468625     0.07700
C2407       C  0.08046939  0.33504463  0.22817749    -0.02100
C2408       C  0.07685736  0.33840399  0.21552758    -0.02100
C2409       C  0.08254377  0.34917741  0.20940061     0.07800
C2410       C  0.09191455  0.35652394  0.21600572    -0.02300
Br2411     Br  0.09923335  0.37171389  0.20803518    -0.00900
Br2412     Br  0.10891705  0.36290868  0.23726774    -0.00900
Br2413     Br  0.06449855  0.32775954  0.20647104    -0.00900
Br2414     Br  0.07158527  0.32105122  0.23677072    -0.00900
C2415       C  0.89619262  0.26701475  0.14781198    -0.02000
C2416       C  0.90526796  0.27221329  0.13907225     0.07700
C2417       C  0.91195594  0.26388775  0.13060109    -0.02100
C2418       C  0.91013166  0.25042684  0.13135131    -0.02100
C2419       C  0.90149337  0.24517911  0.14049477     0.07800
C2420       C  0.89426479  0.25355622  0.14846377    -0.02300
Br2421     Br  0.88155805  0.24659734  0.16021845    -0.00900
Br2422     Br  0.88697345  0.27820576  0.15951772    -0.00900
Br2423     Br  0.92016970  0.23921754  0.12036588    -0.00900
Br2424     Br  0.92353001  0.27089793  0.11775375    -0.00900
C2425       C  0.98242129  0.35914508  0.14272041    -0.02000
C2426       C  0.97875746  0.34819495  0.13548126     0.07700
C2427       C  0.98833673  0.34064686  0.12939818    -0.02100
C2428       C  0.00149668  0.34362711  0.13106333    -0.02100
C2429       C  0.00516198  0.35437846  0.13858420     0.07800
C2430       C  0.99557222  0.36230017  0.14412524    -0.02300
Br2431     Br  0.00042635  0.37770218  0.15344141    -0.00900
Br2432     Br  0.96958908  0.36943557  0.15150550    -0.00900
Br2433     Br  0.01440479  0.33238067  0.12365784    -0.00900
Br2434     Br  0.98349041  0.32635270  0.11845569    -0.00900
C2435       C  0.07997232  0.00113460  0.87270622    -0.02000
C2436       C  0.08724321  0.01017503  0.87989299     0.07700
C2437       C  0.09683353  0.00567513  0.88851041    -0.02100
C2438       C  0.09846839  0.99232062  0.89051972    -0.02100
C2439       C  0.09034031  0.98337621  0.88424910     0.07800
C2440       C  0.08136196  0.98780392  0.87502484    -0.02300
Br2441     Br  0.07037658  0.97572962  0.86604980    -0.00900
Br2442     Br  0.06835502  0.00692946  0.85930054    -0.00900
Br2443     Br  0.11212579  0.98623863  0.90168373    -0.00900
Br2444     Br  0.10729111  0.01757990  0.89831656    -0.00900
C2445       C  0.99307303  0.09687920  0.88364098    -0.02000
C2446       C  0.98575701  0.08944924  0.89244438     0.07700
C2447       C  0.99177607  0.07917150  0.89910879    -0.02100
C2448       C  0.00500780  0.07657310  0.89723214    -0.02100
C2449       C  0.01225004  0.08381822  0.88820168     0.07800
C2450       C  0.00614980  0.09386910  0.88128988    -0.02300
Br2451     Br  0.01543370  0.10317977  0.86805364    -0.00900
Br2452     Br  0.98551106  0.11174957  0.87531296    -0.00900
Br2453     Br  0.01324774  0.06349258  0.90769767    -0.00900
Br2454     Br  0.98186255  0.06813291  0.91044394    -0.00900
C2455       C  0.09319776  0.91692534  0.98428108    -0.02000
C2456       C  0.08483082  0.90684729  0.98809329     0.07700
C2457       C  0.07953035  0.89859871  0.97864632    -0.02100
C2458       C  0.08191334  0.90087786  0.96544633    -0.02100
C2459       C  0.09003312  0.91114901  0.96161022     0.07800
C2460       C  0.09591721  0.91894242  0.97111318    -0.02300
Br2461     Br  0.10796623  0.93231444  0.96618019    -0.00900
Br2462     Br  0.10036184  0.92862377  0.99690640    -0.00900
Br2463     Br  0.07318709  0.89046491  0.95269969    -0.00900
Br2464     Br  0.06924739  0.88390640  0.98379812    -0.00900
C2465       C  0.90414224  0.14089333  0.09958432    -0.02000
C2466       C  0.89470290  0.14186007  0.10936710     0.07700
C2467       C  0.88454281  0.13277444  0.10981638    -0.02100
C2468       C  0.88380470  0.12283730  0.10054448    -0.02100
C2469       C  0.89329427  0.12181129  0.09082165     0.07800
C2470       C  0.90346309  0.13090000  0.09037401    -0.02300
Br2471     Br  0.91691650  0.12933127  0.07754567    -0.00900
Br2472     Br  0.91845000  0.15284288  0.09916535    -0.00900
Br2473     Br  0.86939070  0.11101939  0.10079344    -0.00900
Br2474     Br  0.87129158  0.13421931  0.12285064    -0.00900
C2475       C  0.89448244  0.09000139  0.97892831    -0.02000
C2476       C  0.90196466  0.09536832  0.98895565     0.07700
C2477       C  0.91204748  0.10401748  0.98589238    -0.02100
C2478       C  0.91491575  0.10688469  0.97289711    -0.02100
C2479       C  0.90794567  0.10089341  0.96280993     0.07800
C2480       C  0.89753865  0.09260105  0.96591520    -0.02300
Br2481     Br  0.88789728  0.08397176  0.95250812    -0.00900
Br2482     Br  0.87976514  0.07928606  0.98303081    -0.00900
Br2483     Br  0.92824024  0.11936703  0.96901540    -0.00900
Br2484     Br  0.92252993  0.11141523  0.99941343    -0.00900
C2485       C  0.00076446  0.92392866  0.05326446    -0.02000
C2486       C  0.00737208  0.91382914  0.05959962     0.07700
C2487       C  0.00048834  0.90548059  0.06790950    -0.02100
C2488       C  0.98711833  0.90726696  0.06988992    -0.02100
C2489       C  0.98050881  0.91722537  0.06336497     0.07800
C2490       C  0.98735734  0.92541665  0.05488979    -0.02300
Br2491     Br  0.97831793  0.93831489  0.04487929    -0.00900
Br2492     Br  0.01012438  0.93630101  0.04288742    -0.00900
Br2493     Br  0.97793534  0.89630465  0.08184352    -0.00900
Br2494     Br  0.00921747  0.89128165  0.07623383    -0.00900
C2495       C  0.89823113  0.99752451  0.07007511    -0.02000
C2496       C  0.90926596  0.99199472  0.06424413     0.07700
C2497       C  0.91793208  0.00002032  0.05739206    -0.02100
C2498       C  0.91552475  0.01336129  0.05632330    -0.02100
C2499       C  0.90412210  0.01875262  0.06151172     0.07800
C2500       C  0.89557811  0.01080485  0.06856384    -0.02300
Br2501     Br  0.87990241  0.01791343  0.07569960    -0.00900
Br2502     Br  0.88688871  0.98703272  0.08053769    -0.00900
Br2503     Br  0.92824846  0.02434255  0.04818480    -0.00900
Br2504     Br  0.93269276  0.99278001  0.04856630    -0.00900
C2505       C  0.25771138  0.59637662  0.80484887    -0.02000
C2506       C  0.26819625  0.58904456  0.80953587     0.07700
C2507       C  0.26591719  0.57898396  0.81843547    -0.02100
C2508       C  0.25327529  0.57638934  0.82273467    -0.02100
C2509       C  0.24270107  0.58333789  0.81761496     0.07800
C2510       C  0.24499436  0.59333052  0.80858726    -0.02300
Br2511     Br  0.23084650  0.60231374  0.80037448    -0.00900
Br2512     Br  0.26070507  0.61090264  0.79351401    -0.00900
Br2513     Br  0.25060917  0.56350704  0.83597913    -0.00900
Br2514     Br  0.27993116  0.56803212  0.82405814    -0.00900
C2515       C  0.16278864  0.50010693  0.81791167    -0.02000
C2516       C  0.17131343  0.50735328  0.81012799     0.07700
C2517       C  0.17779172  0.50129062  0.79978003    -0.02100
C2518       C  0.17610013  0.48800157  0.79752251    -0.02100
C2519       C  0.16741246  0.48079346  0.80517296     0.07800
C2520       C  0.16065613  0.48694131  0.81528888    -0.02300
Br2521     Br  0.14796901  0.47757025  0.82525141    -0.00900
Br2522     Br  0.15441747  0.50798590  0.83258388    -0.00900
Br2523     Br  0.18627923  0.47959992  0.78434724    -0.00900
Br2524     Br  0.18847301  0.51127144  0.78816588    -0.00900
C2525       C  0.33416906  0.58009226  0.71038139    -0.02000
C2526       C  0.34270512  0.58806843  0.70328437     0.07700
C2527       C  0.34845212  0.59880971  0.70939757    -0.02100
C2528       C  0.34537874  0.60180199  0.72230155    -0.02100
C2529       C  0.33702940  0.59372033  0.72945219     0.07800
C2530       C  0.33158314  0.58273905  0.72346102    -0.02300
Br2531     Br  0.32108688  0.57074103  0.73321107    -0.00900
Br2532     Br  0.32536005  0.56579491  0.70222527    -0.00900
Br2533     Br  0.35217910  0.61742145  0.72987630    -0.00900
Br2534     Br  0.36119131  0.60909142  0.70043126    -0.00900
C2535       C  0.32807284  0.49981250  0.61711614    -0.02000
C2536       C  0.33460899  0.48957115  0.62329997     0.07700
C2537       C  0.34470455  0.49236538  0.63202864    -0.02100
C2538       C  0.34838730  0.50524429  0.63431743    -0.02100
C2539       C  0.34141368  0.51550977  0.62864839     0.07800
C2540       C  0.33111034  0.51270911  0.62014860    -0.02300
Br2541     Br  0.32030121  0.52634343  0.61341289    -0.00900
Br2542     Br  0.31521946  0.49626911  0.60406825    -0.00900
Br2543     Br  0.36337273  0.50864911  0.64490337    -0.00900
Br2544     Br  0.35294956  0.47873882  0.64174669    -0.00900
C2545       C  0.12388052  0.41522051  0.59845416    -0.02000
C2546       C  0.12767383  0.40332340  0.60387736     0.07700
C2547       C  0.12168790  0.39180702  0.59978492    -0.02100
C2548       C  0.11213877  0.39216752  0.59011515    -0.02100
C2549       C  0.10833764  0.40405736  0.58473206     0.07800
C2550       C  0.11413462  0.41559146  0.58898773    -0.02300
Br2551     Br  0.10852961  0.43191277  0.58198690    -0.00900
Br2552     Br  0.13173691  0.43106530  0.60429848    -0.00900
Br2553     Br  0.10435128  0.37637549  0.58406718    -0.00900
Br2554     Br  0.12677658  0.37550383  0.60721237    -0.00900
C2555       C  0.15931258  0.39536500  0.71601573    -0.02000
C2556       C  0.15309745  0.40337046  0.70691986     0.07700
C2557       C  0.14384996  0.41242581  0.71116383    -0.02100
C2558       C  0.14127588  0.41383340  0.72444406    -0.02100
C2559       C  0.14826614  0.40656069  0.73364365     0.07800
C2560       C  0.15709062  0.39706736  0.72932772    -0.02300
Br2561     Br  0.16706004  0.38697469  0.74142616    -0.00900
Br2562     Br  0.17083869  0.38189075  0.71021458    -0.00900
Br2563     Br  0.12794479  0.42566291  0.72996205    -0.00900
Br2564     Br  0.13537059  0.42369206  0.69895736    -0.00900
C2565       C  0.23654307  0.40805591  0.62513530    -0.02000
C2566       C  0.22967820  0.41477109  0.63482781     0.07700
C2567       C  0.23618133  0.42416610  0.64227502    -0.02100
C2568       C  0.24954647  0.42616023  0.64070130    -0.02100
C2569       C  0.25643750  0.41938750  0.63107126     0.07800
C2570       C  0.24976602  0.41062234  0.62304101    -0.02300
Br2571     Br  0.25844827  0.40272818  0.60854682    -0.00900
Br2572     Br  0.22811317  0.39492191  0.61496277    -0.00900
Br2573     Br  0.25836842  0.43782807  0.65227481    -0.00900
Br2574     Br  0.22670304  0.43510143  0.65406534    -0.00900
C2575       C  0.12147959  0.12437709  0.30211539    -0.02000
C2576       C  0.12046901  0.13349290  0.31215627     0.07700
C2577       C  0.12873579  0.13264190  0.32292380    -0.02100
C2578       C  0.13802125  0.12274481  0.32362747    -0.02100
C2579       C  0.13923056  0.11377820  0.31345845     0.07800
C2580       C  0.13092216  0.11461069  0.30270206    -0.02300
Br2581     Br  0.13288206  0.10279966  0.28843757    -0.00900
Br2582     Br  0.11020759  0.12554119  0.28732728    -0.00900
Br2583     Br  0.14864924  0.12112036  0.33884732    -0.00900
Br2584     Br  0.12700882  0.14475293  0.33696873    -0.00900
C2585       C  0.17517248  0.99095616  0.30611607    -0.02000
C2586       C  0.16454093  0.98510306  0.31229387     0.07700
C2587       C  0.15687047  0.99235961  0.32087554    -0.02100
C2588       C  0.15982184  0.00541183  0.32326730    -0.02100
C2589       C  0.17013487  0.01144140  0.31666981     0.07800
C2590       C  0.17776644  0.00414611  0.30801538    -0.02300
Br2591     Br  0.19119761  0.01224232  0.29788133    -0.00900
Br2592     Br  0.18650150  0.98080519  0.29531133    -0.00900
Br2593     Br  0.14992825  0.01484061  0.33593933    -0.00900
Br2594     Br  0.14183902  0.98467149  0.32880534    -0.00900
C2595       C  0.26200576  0.08416705  0.29922640    -0.02000
C2596       C  0.26824428  0.09321665  0.30726868     0.07700
C2597       C  0.26146339  0.09881762  0.31765403    -0.02100
C2598       C  0.24843225  0.09558691  0.31982778    -0.02100
C2599       C  0.24211776  0.08677649  0.31160617     0.07800
C2600       C  0.24893307  0.08108142  0.30129113    -0.02300
Br2601     Br  0.24024116  0.06949000  0.28957133    -0.00900
Br2602     Br  0.27150085  0.07544046  0.28575120    -0.00900
Br2603     Br  0.23934376  0.10296612  0.33432424    -0.00900
Br2604     Br  0.26988506  0.11120505  0.32871859    -0.00900
C2605       C  0.34466601  0.10412448  0.21057554    -0.02000
C2606       C  0.33621646  0.09488062  0.20515635     0.07700
C2607       C  0.32729961  0.08838791  0.21320560    -0.02100
C2608       C  0.32703488  0.09090255  0.22653831    -0.02100
C2609       C  0.33524939  0.10036610  0.23188566     0.07800
C2610       C  0.34404916  0.10697038  0.22386609    -0.02300
Br2611     Br  0.35506608  0.12017368  0.23103025    -0.00900
Br2612     Br  0.35763019  0.11245079  0.20005987    -0.00900
Br2613     Br  0.31586553  0.08073095  0.23752901    -0.00900
Br2614     Br  0.31487877  0.07644004  0.20603000    -0.00900
C2615       C  0.12399274  0.92128762  0.10595905    -0.02000
C2616       C  0.13014953  0.90961317  0.10923652     0.07700
C2617       C  0.12625674  0.89800903  0.10334749    -0.02100
C2618       C  0.11635350  0.89809383  0.09404621    -0.02100
C2619       C  0.11018200  0.90976875  0.09074568     0.07800
C2620       C  0.11396300  0.92135913  0.09677603    -0.02300
Br2621     Br  0.10556960  0.93735718  0.09226953    -0.00900
Br2622     Br  0.12931499  0.93715190  0.11411387    -0.00900
Br2623     Br  0.11096980  0.88214316  0.08609375    -0.00900
Br2624     Br  0.13441543  0.88198038  0.10818303    -0.00900
C2625       C  0.15998467  0.90184248  0.22113275    -0.02000
C2626       C  0.15436921  0.91006952  0.21185330     0.07700
C2627       C  0.14522237  0.91938498  0.21573168    -0.02100
C2628       C  0.14189815  0.92058590  0.22884000    -0.02100
C2629       C  0.14824282  0.91302938  0.23824603     0.07800
C2630       C  0.15719130  0.90350483  0.23431799    -0.02300
Br2631     Br  0.16659066  0.89337851  0.24684308    -0.00900
Br2632     Br  0.17146750  0.88814342  0.21578816    -0.00900
Br2633     Br  0.12844553  0.93250777  0.23385101    -0.00900
Br2634     Br  0.13804337  0.93135530  0.20336215    -0.00900
C2635       C  0.25294138  0.92920761  0.14394646    -0.02000
C2636       C  0.25892768  0.92152453  0.13440424     0.07700
C2637       C  0.25165479  0.91196903  0.12799222    -0.02100
C2638       C  0.23854754  0.91004350  0.13114341    -0.02100
C2639       C  0.23241935  0.91804943  0.14032875     0.07800
C2640       C  0.23968979  0.92769288  0.14667186    -0.02300
Br2641     Br  0.23147825  0.93941066  0.15863283    -0.00900
Br2642     Br  0.26296857  0.94141773  0.15386702    -0.00900
Br2643     Br  0.22927169  0.89590886  0.12329792    -0.00900
Br2644     Br  0.25942890  0.90186314  0.11440145    -0.00900
C2645       C  0.34470492  0.00920000  0.14158523    -0.02000
C2646       C  0.33985225  0.01863398  0.13297728     0.07700
C2647       C  0.33271455  0.01463299  0.12205457    -0.02100
C2648       C  0.33074934  0.00138971  0.11964569    -0.02100
C2649       C  0.33502283  0.99204225  0.12860331     0.07800
C2650       C  0.34183691  0.99604764  0.13969720    -0.02300
Br2651     Br  0.34631309  0.98377203  0.15301594    -0.00900
Br2652     Br  0.35577240  0.01405419  0.15580363    -0.00900
Br2653     Br  0.32245442  0.99610614  0.10380650    -0.00900
Br2654     Br  0.32454152  0.02712579  0.11086884    -0.00900
C2655       C  0.13094454  0.12581088  0.86771214    -0.02000
C2656       C  0.13467113  0.13170644  0.87936717     0.07700
C2657       C  0.12863727  0.12816933  0.89102666    -0.02100
C2658       C  0.11883232  0.11876170  0.89102827    -0.02100
C2659       C  0.11499061  0.11295182  0.87934534     0.07800
C2660       C  0.12107727  0.11647545  0.86768792    -0.02300
Br2661     Br  0.11557200  0.10887572  0.85161302    -0.00900
Br2662     Br  0.13918897  0.13077025  0.85174505    -0.00900
Br2663     Br  0.11099811  0.11348972  0.90709384    -0.00900
Br2664     Br  0.13403343  0.13603239  0.90701301    -0.00900
C2665       C  0.11688814  0.34724773  0.08788275    -0.02000
C2666       C  0.12587433  0.35748756  0.08710725     0.07700
C2667       C  0.12481971  0.36801699  0.09567688    -0.02100
C2668       C  0.11514122  0.36810727  0.10521850    -0.02100
C2669       C  0.10633100  0.35778133  0.10612574     0.07800
C2670       C  0.10707181  0.34746429  0.09730273    -0.02300
Br2671     Br  0.09502277  0.33328588  0.09853320    -0.00900
Br2672     Br  0.11845343  0.33245285  0.07667023    -0.00900
Br2673     Br  0.11370963  0.38259595  0.11684262    -0.00900
Br2674     Br  0.13628349  0.38262977  0.09405094    -0.00900
C2675       C  0.35288938  0.13073944  0.10207641    -0.02000
C2676       C  0.34461787  0.11993877  0.10135484     0.07700
C2677       C  0.33651122  0.11837668  0.09051928    -0.02100
C2678       C  0.33661575  0.12759392  0.08051529    -0.02100
C2679       C  0.34465456  0.13857163  0.08140266     0.07800
C2680       C  0.35293672  0.13999539  0.09211868    -0.02300
Br2681     Br  0.36494160  0.15425099  0.09284464    -0.00900
Br2682     Br  0.36455166  0.13268295  0.11648687    -0.00900
Br2683     Br  0.32525956  0.12535713  0.06589818    -0.00900
Br2684     Br  0.32454274  0.10409221  0.08974189    -0.00900
C2685       C  0.25476812  0.15328141  0.88805783    -0.02000
C2686       C  0.26349913  0.15873066  0.87909228     0.07700
C2687       C  0.25873395  0.16564205  0.86836520    -0.02100
C2688       C  0.24533773  0.16736755  0.86680990    -0.02100
C2689       C  0.23667332  0.16232181  0.87602573     0.07800
C2690       C  0.24140825  0.15519055  0.88659958    -0.02300
Br2691     Br  0.22971717  0.14882459  0.89968737    -0.00900
Br2692     Br  0.26099212  0.14301309  0.90234668    -0.00900
Br2693     Br  0.23883734  0.17669081  0.85203654    -0.00900
Br2694     Br  0.27049526  0.17360712  0.85627876    -0.00900
C2695       C  0.32808777  0.15543144  0.96246444    -0.02000
C2696       C  0.33588785  0.16120974  0.95288420     0.07700
C2697       C  0.34570359  0.16991649  0.95652146    -0.02100
C2698       C  0.34784249  0.17267461  0.96964748    -0.02100
C2699       C  0.33992534  0.16705767  0.97921933     0.07800
C2700       C  0.32998216  0.15847577  0.97557278    -0.02300
Br2701     Br  0.31828253  0.15156762  0.98837076    -0.00900
Br2702     Br  0.31485471  0.14318292  0.95769856    -0.00900
Br2703     Br  0.36184729  0.18400152  0.97446061    -0.00900
Br2704     Br  0.35563126  0.17888605  0.94352127    -0.00900
C2705       C  0.33731903  0.24776923  0.06252175    -0.02000
C2706       C  0.33027415  0.24082970  0.05316160     0.07700
C2707       C  0.32036580  0.24708467  0.04618945    -0.02100
C2708       C  0.31801606  0.26033602  0.04802895    -0.02100
C2709       C  0.32529108  0.26736507  0.05716667     0.07800
C2710       C  0.33465601  0.26092386  0.06468815    -0.02300
Br2711     Br  0.34340152  0.26990073  0.07848144    -0.00900
Br2712     Br  0.35112443  0.23953349  0.07195382    -0.00900
Br2713     Br  0.30517783  0.26884292  0.03749643    -0.00900
Br2714     Br  0.30956528  0.23742974  0.03442781    -0.00900
C2715       C  0.25274208  0.35498395  0.06141020    -0.02000
C2716       C  0.25694392  0.34583578  0.07061838     0.07700
C2717       C  0.24774999  0.33926812  0.07826950    -0.02100
C2718       C  0.23446940  0.34100551  0.07600266    -0.02100
C2719       C  0.23031102  0.34947203  0.06620570     0.07800
C2720       C  0.23944211  0.35682346  0.05927967    -0.02300
Br2721     Br  0.23368427  0.36932553  0.04669764    -0.00900
Br2722     Br  0.26498897  0.36424210  0.05080780    -0.00900
Br2723     Br  0.22206447  0.33094646  0.08563715    -0.00900
Br2724     Br  0.25331303  0.32775642  0.09185695    -0.00900
C2725       C  0.13966781  0.36536172  0.85040051    -0.02000
C2726       C  0.15060174  0.36232002  0.85787358     0.07700
C2727       C  0.16254179  0.36826051  0.85517491    -0.02100
C2728       C  0.16354852  0.37725336  0.84501864    -0.02100
C2729       C  0.15259332  0.38034030  0.83749235     0.07800
C2730       C  0.14063457  0.37435407  0.84024802    -0.02300
Br2731     Br  0.12534626  0.37884508  0.83057978    -0.00900
Br2732     Br  0.12324100  0.35746582  0.85438116    -0.00900
Br2733     Br  0.18015160  0.38475764  0.84104509    -0.00900
Br2734     Br  0.17766646  0.36360637  0.86504184    -0.00900
C2735       C  0.14915151  0.25159052  0.89422903    -0.02000
C2736       C  0.15604582  0.26111369  0.88732332     0.07700
C2737       C  0.16471526  0.25738217  0.87749331    -0.02100
C2738       C  0.16662868  0.24422411  0.87475845    -0.02100
C2739       C  0.16031743  0.23467650  0.88218063     0.07800
C2740       C  0.15135478  0.23841720  0.89176235    -0.02300
Br2741     Br  0.14253078  0.22567107  0.90215377    -0.00900
Br2742     Br  0.13645153  0.25652042  0.90699107    -0.00900
Br2743     Br  0.17758887  0.23936391  0.86045135    -0.00900
Br2744     Br  0.17480955  0.27014233  0.86834935    -0.00900
C2745       C  0.16802149  0.34359608  0.96547610    -0.02000
C2746       C  0.15725401  0.33645281  0.96122524     0.07700
C2747       C  0.14821228  0.33180642  0.97026961    -0.02100
C2748       C  0.15021933  0.33373218  0.98356286    -0.02100
C2749       C  0.16113279  0.34069267  0.98790826     0.07800
C2750       C  0.16991491  0.34580751  0.97875817    -0.02300
Br2751     Br  0.18440486  0.35621587  0.98420713    -0.00900
Br2752     Br  0.18053719  0.34988045  0.95314409    -0.00900
Br2753     Br  0.13839375  0.32590168  0.99569127    -0.00900
Br2754     Br  0.13282871  0.32304261  0.96439296    -0.00900
C2755       C  0.37070657  0.86905885  0.12360037    -0.02000
C2756       C  0.37976066  0.86881131  0.13377115     0.07700
C2757       C  0.37913828  0.87824520  0.14355478    -0.02100
C2758       C  0.36955864  0.88790878  0.14313910    -0.02100
C2759       C  0.36054183  0.88820517  0.13292331     0.07800
C2760       C  0.36108335  0.87866153  0.12322173    -0.02300
Br2761     Br  0.34908393  0.87906141  0.10896491    -0.00900
Br2762     Br  0.37197390  0.85676253  0.10965304    -0.00900
Br2763     Br  0.36846674  0.90040111  0.15690766    -0.00900
Br2764     Br  0.39118235  0.87770222  0.15776240    -0.00900
C2765       C  0.50203160  0.83390841  0.13852848    -0.02000
C2766       C  0.50843901  0.84448141  0.13275480     0.07700
C2767       C  0.50174088  0.85230530  0.12380865    -0.02100
C2768       C  0.48876821  0.84958430  0.12071292    -0.02100
C2769       C  0.48222647  0.83938236  0.12692495     0.07800
C2770       C  0.48889433  0.83159805  0.13591472    -0.02300
Br2771     Br  0.47994603  0.81822041  0.14537525    -0.00900
Br2772     Br  0.51133091  0.82204817  0.14953495    -0.00900
Br2773     Br  0.48008174  0.85959353  0.10760062    -0.00900
Br2774     Br  0.50999325  0.86722011  0.11625246    -0.00900
C2775       C  0.41673086  0.74673109  0.14194549    -0.02000
C2776       C  0.40693931  0.73982330  0.13542736     0.07700
C2777       C  0.39874106  0.74637150  0.12673054    -0.02100
C2778       C  0.40050734  0.75964555  0.12434225    -0.02100
C2779       C  0.41028733  0.76651052  0.13084464     0.07800
C2780       C  0.41823493  0.76006600  0.13982667    -0.02300
Br2781     Br  0.43085997  0.76960002  0.14970426    -0.00900
Br2782     Br  0.42865373  0.73792543  0.15327425    -0.00900
Br2783     Br  0.38979890  0.76833029  0.11181043    -0.00900
Br2784     Br  0.38472681  0.73731307  0.11844157    -0.00900
C2785       C  0.42631966  0.66853175  0.22578711    -0.02000
C2786       C  0.42017510  0.65780103  0.23155956     0.07700
C2787       C  0.41205727  0.64985468  0.22402812    -0.02100
C2788       C  0.40989789  0.65277299  0.21092013    -0.02100
C2789       C  0.41626229  0.66332981  0.20510554     0.07800
C2790       C  0.42466331  0.67105193  0.21254831    -0.02300
Br2791     Br  0.43445297  0.68480039  0.20456880    -0.00900
Br2792     Br  0.43632774  0.68045273  0.23607925    -0.00900
Br2793     Br  0.39763084  0.64267432  0.20117830    -0.00900
Br2794     Br  0.40421209  0.63464538  0.23144187    -0.00900
C2795       C  0.49858548  0.64626503  0.30409906    -0.02000
C2796       C  0.48898017  0.65321623  0.31079830     0.07700
C2797       C  0.49264914  0.66215847  0.32038457    -0.02100
C2798       C  0.50583827  0.66460988  0.32273446    -0.02100
C2799       C  0.51546535  0.65843782  0.31524980     0.07800
C2800       C  0.51173853  0.64910911  0.30600857    -0.02300
Br2801     Br  0.52432096  0.64097052  0.29490008    -0.00900
Br2802     Br  0.49374783  0.63249328  0.29247278    -0.00900
Br2803     Br  0.51058953  0.67636342  0.33640804    -0.00900
Br2804     Br  0.47971524  0.67171428  0.32983077    -0.00900
C2805       C  0.59636677  0.75692267  0.31285794    -0.02000
C2806       C  0.58838905  0.76356780  0.30399939     0.07700
C2807       C  0.57866576  0.75669866  0.29733381    -0.02100
C2808       C  0.57723701  0.74330011  0.29915597    -0.02100
C2809       C  0.58511520  0.73667280  0.30811341     0.07800
C2810       C  0.59460601  0.74358525  0.31503972    -0.02300
Br2811     Br  0.60488966  0.73495926  0.32797660    -0.00900
Br2812     Br  0.61015772  0.76585933  0.32165658    -0.00900
Br2813     Br  0.56486649  0.73401826  0.28871205    -0.00900
Br2814     Br  0.56666944  0.76565161  0.28617511    -0.00900
C2815       C  0.57837687  0.85486270  0.21766149    -0.02000
C2816       C  0.58382114  0.84783446  0.20735701     0.07700
C2817       C  0.59305901  0.83814915  0.20994660    -0.02100
C2818       C  0.59672921  0.83547121  0.22274805    -0.02100
C2819       C  0.59069352  0.84193544  0.23311728     0.07800
C2820       C  0.58158680  0.85176712  0.23050616    -0.02300
Br2821     Br  0.57277006  0.86056744  0.24437164    -0.00900
Br2822     Br  0.56675611  0.86904008  0.21419938    -0.00900
Br2823     Br  0.61047415  0.82326729  0.22597413    -0.00900
Br2824     Br  0.60010333  0.82780575  0.19612126    -0.00900
C2825       C  0.36868155  0.63104905  0.34313252    -0.02000
C2826       C  0.36611372  0.64198859  0.35077625     0.07700
C2827       C  0.37277946  0.65362798  0.34849199    -0.02100
C2828       C  0.38226349  0.65421548  0.33880649    -0.02100
C2829       C  0.38500945  0.64320574  0.33134018     0.07800
C2830       C  0.37808405  0.63168453  0.33335246    -0.02300
Br2831     Br  0.38173854  0.61671069  0.32292274    -0.00900
Br2832     Br  0.35972853  0.61505151  0.34645890    -0.00900
Br2833     Br  0.39138037  0.67015443  0.33559857    -0.00900
Br2834     Br  0.36868663  0.66886327  0.35839218    -0.00900
C2835       C  0.36218800  0.63590731  0.59084900    -0.02000
C2836       C  0.35264782  0.63667606  0.58117970     0.07700
C2837       C  0.34220283  0.62793314  0.58126423    -0.02100
C2838       C  0.34130812  0.61846775  0.59098606    -0.02100
C2839       C  0.35087956  0.61766637  0.60063894     0.07800
C2840       C  0.36134500  0.62638508  0.60051852    -0.02300
Br2841     Br  0.37490652  0.62488876  0.61320689    -0.00900
Br2842     Br  0.37670895  0.64759512  0.59055415    -0.00900
Br2843     Br  0.32664794  0.60695115  0.59137109    -0.00900
Br2844     Br  0.32878686  0.62926142  0.56839257    -0.00900
C2845       C  0.33827650  0.65144551  0.47623024    -0.02000
C2846       C  0.34672137  0.66178684  0.47896579     0.07700
C2847       C  0.35278429  0.66847288  0.46874663    -0.02100
C2848       C  0.35015334  0.66507242  0.45587079    -0.02100
C2849       C  0.34169565  0.65475234  0.45315751     0.07800
C2850       C  0.33599343  0.64777974  0.46337255    -0.02300
Br2851     Br  0.32523556  0.63296406  0.45979587    -0.00900
Br2852     Br  0.32890473  0.64290705  0.48992539    -0.00900
Br2853     Br  0.35752664  0.67516333  0.44201950    -0.00900
Br2854     Br  0.36486085  0.68223279  0.47231106    -0.00900
C2855       C  0.16106446  0.86612853  0.35183162    -0.02000
C2856       C  0.15003771  0.86445497  0.35972380     0.07700
C2857       C  0.13903563  0.87228572  0.35769676    -0.02100
C2858       C  0.13912245  0.88173325  0.34794235    -0.02100
C2859       C  0.15008917  0.88330749  0.34008851     0.07800
C2860       C  0.16101570  0.87546752  0.34196247    -0.02300
Br2861     Br  0.17600988  0.87775524  0.33111192    -0.00900
Br2862     Br  0.17661002  0.85630527  0.35494861    -0.00900
Br2863     Br  0.12414371  0.89248236  0.34516303    -0.00900
Br2864     Br  0.12354044  0.86981565  0.36779443    -0.00900
C2865       C  0.16243716  0.84861244  0.47859335    -0.02000
C2866       C  0.15591617  0.84176897  0.48842638     0.07700
C2867       C  0.14548760  0.83360388  0.48521405    -0.02100
C2868       C  0.14172481  0.83219112  0.47226327    -0.02100
C2869       C  0.14875156  0.83838130  0.46237795     0.07800
C2870       C  0.15904260  0.84673492  0.46558323    -0.02300
Br2871     Br  0.16920253  0.85498962  0.45227829    -0.00900
Br2872     Br  0.17586741  0.86085231  0.48285360    -0.00900
Br2873     Br  0.12671565  0.82191536  0.46808040    -0.00900
Br2874     Br  0.13692581  0.82345261  0.49832074    -0.00900
C2875       C  0.32691096  0.75409182  0.56384649    -0.02000
C2876       C  0.33370124  0.76404864  0.55745457     0.07700
C2877       C  0.34337939  0.76086895  0.54839674    -0.02100
C2878       C  0.34625971  0.74785830  0.54577533    -0.02100
C2879       C  0.33925776  0.73790631  0.55192966     0.07800
C2880       C  0.32954560  0.74107458  0.56095674    -0.02300
Br2881     Br  0.31919572  0.72767208  0.56880926    -0.00900
Br2882     Br  0.31423385  0.75818385  0.57690407    -0.00900
Br2883     Br  0.36012728  0.74377859  0.53397353    -0.00900
Br2884     Br  0.35223531  0.77425969  0.53887907    -0.00900
C2885       C  0.25629600  0.84996907  0.55591083    -0.02000
C2886       C  0.25990777  0.83946553  0.56380719     0.07700
C2887       C  0.25032773  0.83228524  0.57032965    -0.02100
C2888       C  0.23718700  0.83519553  0.56847770    -0.02100
C2889       C  0.23358964  0.84541080  0.56023959     0.07800
C2890       C  0.24316039  0.85300527  0.55425623    -0.02300
Br2891     Br  0.23823619  0.86769190  0.54388786    -0.00900
Br2892     Br  0.26918712  0.85967253  0.54654631    -0.00900
Br2893     Br  0.22413635  0.82469611  0.57668857    -0.00900
Br2894     Br  0.25515979  0.81855318  0.58198324    -0.00900
C2895       C  0.13165743  0.63222880  0.36066013    -0.02000
C2896       C  0.13665797  0.63649511  0.37255769     0.07700
C2897       C  0.13222606  0.63096681  0.38417396    -0.02100
C2898       C  0.12275790  0.62123022  0.38388685    -0.02100
C2899       C  0.11772236  0.61700652  0.37199229     0.07800
C2900       C  0.12222692  0.62245043  0.36037517    -0.02300
Br2901     Br  0.11531102  0.61662921  0.34410797    -0.00900
Br2902     Br  0.13744559  0.64009980  0.34479610    -0.00900
Br2903     Br  0.11684120  0.61345908  0.39975889    -0.00900
Br2904     Br  0.13933963  0.63653094  0.40045269    -0.00900
C2905       C  0.16132993  0.74398264  0.37987917    -0.02000
C2906       C  0.16924040  0.73711233  0.38859091     0.07700
C2907       C  0.17498831  0.74365537  0.39905862    -0.02100
C2908       C  0.17301081  0.75699282  0.40067902    -0.02100
C2909       C  0.16469923  0.76377296  0.39225756     0.07800
C2910       C  0.15887162  0.75720351  0.38183463    -0.02300
Br2911     Br  0.14695625  0.76601166  0.37050270    -0.00900
Br2912     Br  0.15420573  0.73548217  0.36490259    -0.00900
Br2913     Br  0.18232973  0.76602690  0.41407297    -0.00900
Br2914     Br  0.18497823  0.73427029  0.41171425    -0.00900
C2915       C  0.24240494  0.64741636  0.38368668    -0.02000
C2916       C  0.23940021  0.65881531  0.37677647     0.07700
C2917       C  0.24950591  0.66638501  0.37157158    -0.02100
C2918       C  0.26245374  0.66302257  0.37388467    -0.02100
C2919       C  0.26539885  0.65184733  0.38103433     0.07800
C2920       C  0.25538926  0.64392586  0.38571251    -0.02300
Br2921     Br  0.25954287  0.62825490  0.39493519    -0.00900
Br2922     Br  0.22896230  0.63689100  0.39120645    -0.00900
Br2923     Br  0.27614525  0.67422725  0.36794183    -0.00900
Br2924     Br  0.24575969  0.68118367  0.36084651    -0.00900
C2925       C  0.38623227  0.10802359  0.34681999    -0.02000
C2926       C  0.38996920  0.09648849  0.35301853     0.07700
C2927       C  0.38435996  0.08467410  0.34923673    -0.02100
C2928       C  0.37515388  0.08439442  0.33922949    -0.02100
C2929       C  0.37137836  0.09593438  0.33310310     0.07800
C2930       C  0.37687152  0.10775689  0.33696341    -0.02300
Br2931     Br  0.37116285  0.12364752  0.32908615    -0.00900
Br2932     Br  0.39357147  0.12427708  0.35217423    -0.00900
Br2933     Br  0.36789266  0.06817373  0.33367032    -0.00900
Br2934     Br  0.38952621  0.06881623  0.35752745    -0.00900
C2935       C  0.58179810  0.87836080  0.35057661    -0.02000
C2936       C  0.59282295  0.88536529  0.35435520     0.07700
C2937       C  0.60488163  0.88265143  0.34866742    -0.02100
C2938       C  0.60591860  0.87295957  0.33920778    -0.02100
C2939       C  0.59490780  0.86587890  0.33547362     0.07800
C2940       C  0.58283603  0.86859884  0.34117959    -0.02300
Br2941     Br  0.56763116  0.85925061  0.33582869    -0.00900
Br2942     Br  0.56524057  0.88234370  0.35813478    -0.00900
Br2943     Br  0.62252830  0.86905662  0.33170689    -0.00900
Br2944     Br  0.62003516  0.89204095  0.35408138    -0.00900
C2945       C  0.58320814  0.99520440  0.39098264    -0.02000
C2946       C  0.59287016  0.98771077  0.38494904     0.07700
C2947       C  0.60116030  0.99354678  0.37582871    -0.02100
C2948       C  0.59942484  0.00659114  0.37231303    -0.02100
C2949       C  0.58957116  0.01401487  0.37814172     0.07800
C2950       C  0.58171994  0.00832809  0.38776574    -0.02300
Br2951     Br  0.56923939  0.01856617  0.39714355    -0.00900
Br2952     Br  0.57139904  0.98745024  0.40319560    -0.00900
Br2953     Br  0.61021035  0.01398040  0.35901087    -0.00900
Br2954     Br  0.61525327  0.98381153  0.36845945    -0.00900
C2955       C  0.51553860  0.09929102  0.38117775    -0.02000
C2956       C  0.51830758  0.09006402  0.37149196     0.07700
C2957       C  0.50799703  0.08376801  0.36516744    -0.02100
C2958       C  0.49516770  0.08591623  0.36910865    -0.02100
C2959       C  0.49239064  0.09525062  0.37863179     0.07800
C2960       C  0.50262193  0.10212807  0.38443563    -0.02300
Br2961     Br  0.49899276  0.11567751  0.39672230    -0.00900
Br2962     Br  0.52924234  0.10751239  0.39079542    -0.00900
Br2963     Br  0.48163847  0.07507946  0.36221414    -0.00900
Br2964     Br  0.51126363  0.07260110  0.35059661    -0.00900
C2965       C  0.40950786  0.09299474  0.47546299    -0.02000
C2966       C  0.41619305  0.08319319  0.48220592     0.07700
C2967       C  0.42537183  0.07557546  0.47558306    -0.02100
C2968       C  0.42739445  0.07733179  0.46225915    -0.02100
C2969       C  0.42075430  0.08715955  0.45553850     0.07800
C2970       C  0.41193765  0.09509268  0.46223850    -0.02300
Br2971     Br  0.40356500  0.10927183  0.45349229    -0.00900
Br2972     Br  0.39657621  0.10330852  0.48407340    -0.00900
Br2973     Br  0.43883108  0.06573252  0.45315988    -0.00900
Br2974     Br  0.43589547  0.06323171  0.48481703    -0.00900
C2975       C  0.37924480  0.87550295  0.58897572    -0.02000
C2976       C  0.38098271  0.88465254  0.57903623     0.07700
C2977       C  0.37305256  0.88417108  0.56796406    -0.02100
C2978       C  0.36352084  0.87454912  0.56681768    -0.02100
C2979       C  0.36184541  0.86536743  0.57672063     0.07800
C2980       C  0.36966275  0.86590749  0.58783634    -0.02300
Br2981     Br  0.36691817  0.85375116  0.60168913    -0.00900
Br2982     Br  0.38973463  0.87635445  0.60433541    -0.00900
Br2983     Br  0.35311519  0.87360872  0.55138631    -0.00900
Br2984     Br  0.37562954  0.89624816  0.55398877    -0.00900
C2985       C  0.39981737  0.98944386  0.55640699    -0.02000
C2986       C  0.41108635  0.98521207  0.56282330     0.07700
C2987       C  0.42005372  0.99441943  0.56740330    -0.02100
C2988       C  0.41811129  0.00766285  0.56500203    -0.02100
C2989       C  0.40699293  0.01185050  0.55834409     0.07800
C2990       C  0.39774969  0.00271678  0.55427055    -0.02300
Br2991     Br  0.38212757  0.00840419  0.54581972    -0.00900
Br2992     Br  0.38751078  0.97712581  0.54974845    -0.00900
Br2993     Br  0.43120814  0.01992797  0.57006961    -0.00900
Br2994     Br  0.43486956  0.98902060  0.57737345    -0.00900
C2995       C  0.59481539  0.91330215  0.48040513    -0.02000
C2996       C  0.58466018  0.90475314  0.48356715     0.07700
C2997       C  0.57761545  0.89874340  0.47357761    -0.02100
C2998       C  0.58018415  0.90180019  0.46057792    -0.02100
C2999       C  0.59031046  0.91040374  0.45740098     0.07800
C3000       C  0.59783596  0.91583915  0.46738720    -0.02300
Br3001     Br  0.61261896  0.92649626  0.46333532    -0.00900
Br3002     Br  0.60406994  0.92240256  0.49379053    -0.00900
Br3003     Br  0.56901059  0.89485824  0.44735488    -0.00900
Br3004     Br  0.56461667  0.88596429  0.47760795    -0.00900
C3005       C  0.50586162  0.91430292  0.56752542    -0.02000
C3006       C  0.50987560  0.90466116  0.55878148     0.07700
C3007       C  0.50054170  0.89687006  0.55263225    -0.02100
C3008       C  0.48729140  0.89932256  0.55445056    -0.02100
C3009       C  0.48328955  0.90925512  0.56283033     0.07800
C3010       C  0.49259938  0.91645849  0.56967122    -0.02300
Br3011     Br  0.48717238  0.92917666  0.58216304    -0.00900
Br3012     Br  0.51840792  0.92515880  0.57600457    -0.00900
Br3013     Br  0.47468380  0.88961828  0.54475673    -0.00900
Br3014     Br  0.50588111  0.88253619  0.54199481    -0.00900
C3015       C  0.58168671  0.38903984  0.97364006    -0.02000
C3016       C  0.58678018  0.39686344  0.98352067     0.07700
C3017       C  0.59522914  0.40706138  0.98036365    -0.02100
C3018       C  0.59815150  0.40973432  0.96735807    -0.02100
C3019       C  0.59236447  0.40245402  0.95737243     0.07800
C3020       C  0.58430620  0.39190176  0.96059933    -0.02300
Br3021     Br  0.57598934  0.38181623  0.94732628    -0.00900
Br3022     Br  0.57125540  0.37421271  0.97804073    -0.00900
Br3023     Br  0.61043672  0.42320737  0.96336580    -0.00900
Br3024     Br  0.60225831  0.41792743  0.99377403    -0.00900
C3025       C  0.37671843  0.38112397  0.05416693    -0.02000
C3026       C  0.38027728  0.38741990  0.06568258     0.07700
C3027       C  0.37414866  0.38408924  0.07737036    -0.02100
C3028       C  0.36443961  0.37455742  0.07752943    -0.02100
C3029       C  0.36086766  0.36825681  0.06600150     0.07800
C3030       C  0.36702583  0.37157896  0.05431674    -0.02300
Br3031     Br  0.36169166  0.36357871  0.03837086    -0.00900
Br3032     Br  0.38478345  0.38595619  0.03807882    -0.00900
Br3033     Br  0.35629026  0.36988493  0.09363153    -0.00900
Br3034     Br  0.37935765  0.39231241  0.09324055    -0.00900
C3035       C  0.49119292  0.42213304  0.05206130    -0.02000
C3036       C  0.48337500  0.41404179  0.05980459     0.07700
C3037       C  0.48871195  0.40260259  0.06499666    -0.02100
C3038       C  0.50164212  0.39922756  0.06235292    -0.02100
C3039       C  0.50950154  0.40743247  0.05482354     0.07800
C3040       C  0.50423331  0.41894371  0.04975858    -0.02300
Br3041     Br  0.51498552  0.43072718  0.04006502    -0.00900
Br3042     Br  0.48398224  0.43729031  0.04391994    -0.00900
Br3043     Br  0.50834896  0.38297815  0.06856233    -0.00900
Br3044     Br  0.47858350  0.39173264  0.07628342    -0.00900
C3045       C  0.42139813  0.63194202  0.09766405    -0.02000
C3046       C  0.41007024  0.63862761  0.10118003     0.07700
C3047       C  0.39835453  0.63590358  0.09479680    -0.02100
C3048       C  0.39793385  0.62640177  0.08508797    -0.02100
C3049       C  0.40918307  0.61945978  0.08183534     0.07800
C3050       C  0.42094620  0.62234586  0.08804529    -0.02300
Br3051     Br  0.43653187  0.61344411  0.08304987    -0.00900
Br3052     Br  0.43763177  0.63626378  0.10572254    -0.00900
Br3053     Br  0.38182703  0.62259088  0.07652774    -0.00900
Br3054     Br  0.38272692  0.64475558  0.09976351    -0.00900
C3055       C  0.40133227  0.50980524  0.06547708    -0.02000
C3056       C  0.41000891  0.51570246  0.05676140     0.07700
C3057       C  0.42033416  0.50843043  0.05165138    -0.02100
C3058       C  0.42171483  0.49529144  0.05485125    -0.02100
C3059       C  0.41330729  0.48946846  0.06392111     0.07800
C3060       C  0.40314757  0.49684201  0.06927385    -0.02300
Br3061     Br  0.39197910  0.48943993  0.08224578    -0.00900
Br3062     Br  0.38657619  0.51927959  0.07180577    -0.00900
Br3063     Br  0.43465385  0.48521814  0.04593617    -0.00900
Br3064     Br  0.43315444  0.51658165  0.04079670    -0.00900
C3065       C  0.38304589  0.61545682  0.84704267    -0.02000
C3066       C  0.39011934  0.60404122  0.84934503     0.07700
C3067       C  0.38774692  0.59301954  0.84169858    -0.02100
C3068       C  0.37823893  0.59336656  0.83196760    -0.02100
C3069       C  0.37108749  0.60473519  0.82979794     0.07800
C3070       C  0.37361202  0.61581454  0.83724647    -0.02300
Br3071     Br  0.36430034  0.63157349  0.83378466    -0.00900
Br3072     Br  0.38644440  0.63072046  0.85713426    -0.00900
Br3073     Br  0.37458757  0.57808284  0.82196900    -0.00900
Br3074     Br  0.39696477  0.57717991  0.84502466    -0.00900
C3075       C  0.40077621  0.58398898  0.97058884    -0.02000
C3076       C  0.40848333  0.58984986  0.98019171     0.07700
C3077       C  0.41813759  0.59876681  0.97648480    -0.02100
C3078       C  0.42018444  0.60158722  0.96333416    -0.02100
C3079       C  0.41295293  0.59519405  0.95371264     0.07800
C3080       C  0.40311064  0.58650808  0.95740937    -0.02300
Br3081     Br  0.39334762  0.57729005  0.94449319    -0.00900
Br3082     Br  0.38678147  0.57264087  0.97542533    -0.00900
Br3083     Br  0.43281893  0.61447536  0.95854751    -0.00900
Br3084     Br  0.42938958  0.60644677  0.98921938    -0.00900
C3085       C  0.50885438  0.57752980  0.87502377    -0.02000
C3086       C  0.51770692  0.58425234  0.88291533     0.07700
C3087       C  0.51317226  0.59415802  0.89109514    -0.02100
C3088       C  0.49987739  0.59704454  0.89162649    -0.02100
C3089       C  0.49094279  0.58975829  0.88433886     0.07800
C3090       C  0.49550902  0.58003659  0.87596973    -0.02300
Br3091     Br  0.48351142  0.56940184  0.86647530    -0.00900
Br3092     Br  0.51499365  0.56521287  0.86245416    -0.00900
Br3093     Br  0.49398833  0.61124689  0.90217594    -0.00900
Br3094     Br  0.52498626  0.60334261  0.90220952    -0.00900
C3095       C  0.60001865  0.50286083  0.89173337    -0.02000
C3096       C  0.59042330  0.50740026  0.88318132     0.07700
C3097       C  0.58318356  0.49843859  0.87588593    -0.02100
C3098       C  0.58516365  0.48507057  0.87749810    -0.02100
C3099       C  0.59462698  0.48053991  0.88619634     0.07800
C3100       C  0.60224813  0.48950449  0.89306728    -0.02300
Br3101     Br  0.61603826  0.48352365  0.90410650    -0.00900
Br3102     Br  0.60952941  0.51481594  0.90239888    -0.00900
Br3103     Br  0.57426589  0.47303664  0.86833762    -0.00900
Br3104     Br  0.57066748  0.50441237  0.86342149    -0.00900
C3105       C  0.36858599  0.36815792  0.62945105    -0.02000
C3106       C  0.37781013  0.36730014  0.61946295     0.07700
C3107       C  0.37708026  0.37584282  0.60888989    -0.02100
C3108       C  0.36719741  0.38518542  0.60828891    -0.02100
C3109       C  0.35805410  0.38621174  0.61838188     0.07800
C3110       C  0.35881867  0.37763239  0.62898293    -0.02300
Br3111     Br  0.34708657  0.37927429  0.64339694    -0.00900
Br3112     Br  0.36968806  0.35675691  0.64416959    -0.00900
Br3113     Br  0.36588266  0.39608297  0.59321443    -0.00900
Br3114     Br  0.38932485  0.37438948  0.59489232    -0.00900
C3115       C  0.41457161  0.12525090  0.58389103    -0.02000
C3116       C  0.40434547  0.11626180  0.58293591     0.07700
C3117       C  0.39349970  0.11751684  0.59111397    -0.02100
C3118       C  0.39303014  0.12747393  0.60035367    -0.02100
C3119       C  0.40328187  0.13636585  0.60135141     0.07800
C3120       C  0.41398042  0.13532538  0.59300484    -0.02300
Br3121     Br  0.42811979  0.14738967  0.59445447    -0.00900
Br3122     Br  0.42981419  0.12338245  0.57330793    -0.00900
Br3123     Br  0.37813427  0.12918108  0.61143769    -0.00900
Br3124     Br  0.37894262  0.10600772  0.58930558    -0.00900
C3125       C  0.39549455  0.24759424  0.63871024    -0.02000
C3126       C  0.40415333  0.23858871  0.63327560     0.07700
C3127       C  0.41458067  0.24302029  0.62570143    -0.02100
C3128       C  0.41633386  0.25633278  0.62358428    -0.02100
C3129       C  0.40804915  0.26539956  0.62953201     0.07800
C3130       C  0.39751237  0.26094843  0.63699694    -0.02300
Br3131     Br  0.38621319  0.27300388  0.64563186    -0.00900
Br3132     Br  0.38070243  0.24163799  0.64840358    -0.00900
Br3133     Br  0.42987047  0.26200672  0.61204300    -0.00900
Br3134     Br  0.42714502  0.23098500  0.61898592    -0.00900
C3135       C  0.38277121  0.15837442  0.83968147    -0.02000
C3136       C  0.38535846  0.14736799  0.83211667     0.07700
C3137       C  0.37807849  0.13601462  0.83402875    -0.02100
C3138       C  0.36835066  0.13563764  0.84354822    -0.02100
C3139       C  0.36581247  0.14662700  0.85114986     0.07800
C3140       C  0.37293170  0.15804881  0.84907244    -0.02300
Br3141     Br  0.36872519  0.17348838  0.85859769    -0.00900
Br3142     Br  0.39243124  0.17406657  0.83688937    -0.00900
Br3143     Br  0.35872912  0.11994513  0.84643823    -0.00900
Br3144     Br  0.38177236  0.12080509  0.82394968    -0.00900
C3145       C  0.42557636  0.16317612  0.72389678    -0.02000
C3146       C  0.41767061  0.15396185  0.73013962     0.07700
C3147       C  0.40755141  0.14800906  0.72323048    -0.02100
C3148       C  0.40510029  0.15150278  0.71031948    -0.02100
C3149       C  0.41291793  0.16079770  0.70412479     0.07800
C3150       C  0.42331000  0.16644086  0.71089601    -0.02300
Br3151     Br  0.43490189  0.17823657  0.70222953    -0.00900
Br3152     Br  0.43916323  0.17192385  0.73321255    -0.00900
Br3153     Br  0.39063785  0.14388024  0.70136712    -0.00900
Br3154     Br  0.39732062  0.13462352  0.73124580    -0.00900
C3155       C  0.50769365  0.14773534  0.81744229    -0.02000
C3156       C  0.51521481  0.15534149  0.80899837     0.07700
C3157       C  0.50950316  0.16058910  0.79780051    -0.02100
C3158       C  0.49624365  0.15880059  0.79539277    -0.02100
C3159       C  0.48870280  0.15111441  0.80379396     0.07800
C3160       C  0.49454381  0.14545424  0.81474191    -0.02300
Br3161     Br  0.48474054  0.13412013  0.82585328    -0.00900
Br3162     Br  0.51520655  0.14084086  0.83303819    -0.00900
Br3163     Br  0.48839677  0.16772236  0.78100150    -0.00900
Br3164     Br  0.51996188  0.16971182  0.78531028    -0.00900
C3165       C  0.59210070  0.35915382  0.84475523    -0.02000
C3166       C  0.60236769  0.35863654  0.83584146     0.07700
C3167       C  0.61212494  0.36810515  0.83614544    -0.02100
C3168       C  0.61176310  0.37794407  0.84550231    -0.02100
C3169       C  0.60159988  0.37836651  0.85457855     0.07800
C3170       C  0.59170375  0.36899800  0.85410060    -0.02300
Br3171     Br  0.57724624  0.36994026  0.86583988    -0.00900
Br3172     Br  0.57830019  0.34664162  0.84383206    -0.00900
Br3173     Br  0.62557958  0.39043482  0.84623432    -0.00900
Br3174     Br  0.62626058  0.36729481  0.82401870    -0.00900
C3175       C  0.60193377  0.24566496  0.80402623    -0.02000
C3176       C  0.59574048  0.25536241  0.81133507     0.07700
C3177       C  0.58734994  0.25179087  0.82148792    -0.02100
C3178       C  0.58490842  0.23864731  0.82402454    -0.02100
C3179       C  0.59048708  0.22899659  0.81619275     0.07800
C3180       C  0.59913901  0.23256093  0.80627139    -0.02300
Br3181     Br  0.60653798  0.21966896  0.79501467    -0.00900
Br3182     Br  0.61457885  0.25023674  0.79106267    -0.00900
Br3183     Br  0.57410180  0.23388003  0.83846846    -0.00900
Br3184     Br  0.57840122  0.26477182  0.83142954    -0.00900
C3185       C  0.59300932  0.34016889  0.71576937    -0.02000
C3186       C  0.58296293  0.33383151  0.70909753     0.07700
C3187       C  0.57574282  0.32414498  0.71539815    -0.02100
C3188       C  0.57785384  0.32150232  0.72853326    -0.02100
C3189       C  0.58782328  0.32790261  0.73527900     0.07800
C3190       C  0.59555966  0.33707173  0.72876428    -0.02300
Br3191     Br  0.61000842  0.34511824  0.73739278    -0.00900
Br3192     Br  0.60307069  0.35342383  0.70734004    -0.00900
Br3193     Br  0.56633818  0.30974906  0.73735262    -0.00900
Br3194     Br  0.56346468  0.31381369  0.70587006    -0.00900
C3195       C  0.49737523  0.35453876  0.64272754    -0.02000
C3196       C  0.50715603  0.34686593  0.63720273     0.07700
C3197       C  0.50382417  0.33679247  0.62867623    -0.02100
C3198       C  0.49076703  0.33433280  0.62581061    -0.02100
C3199       C  0.48090862  0.34166126  0.63175577     0.07800
C3200       C  0.48428980  0.35188295  0.64013214    -0.02300
Br3201     Br  0.47113190  0.36180649  0.64884290    -0.00900
Br3202     Br  0.50192539  0.36885696  0.65376164    -0.00900
Br3203     Br  0.48652483  0.32110052  0.61338067    -0.00900
Br3204     Br  0.51702869  0.32569652  0.62154260    -0.00900
C3205       C  0.88694237  0.13693007  0.34670203    -0.02000
C3206       C  0.88868594  0.14800269  0.33897135     0.07700
C3207       C  0.88087256  0.15896762  0.34098919    -0.02100
C3208       C  0.87136259  0.15885638  0.35068795    -0.02100
C3209       C  0.86971387  0.14783342  0.35850095     0.07800
C3210       C  0.87748207  0.13686056  0.35647615    -0.02300
Br3211     Br  0.87481876  0.12159111  0.36681739    -0.00900
Br3212     Br  0.89718931  0.12169762  0.34359011    -0.00900
Br3213     Br  0.86088996  0.17400958  0.35354775    -0.00900
Br3214     Br  0.88357849  0.17441157  0.33089471    -0.00900
C3215       C  0.63828157  0.12601008  0.38161519    -0.02000
C3216       C  0.63934790  0.13582012  0.37223515     0.07700
C3217       C  0.63105203  0.13577226  0.36145202    -0.02100
C3218       C  0.62184252  0.12587541  0.35995989    -0.02100
C3219       C  0.62072522  0.11604775  0.36936447     0.07800
C3220       C  0.62895693  0.11620313  0.38024320    -0.02300
Br3221     Br  0.62702519  0.10351585  0.39378456    -0.00900
Br3222     Br  0.64916106  0.12636770  0.39674926    -0.00900
Br3223     Br  0.61126143  0.12551156  0.34461199    -0.00900
Br3224     Br  0.63262566  0.14900917  0.34840942    -0.00900
C3225       C  0.65458535  0.25556034  0.39747176    -0.02000
C3226       C  0.66170770  0.26497160  0.39064185     0.07700
C3227       C  0.67111536  0.26104684  0.38160838    -0.02100
C3228       C  0.67341165  0.24782531  0.37945196    -0.02100
C3229       C  0.66663477  0.23839778  0.38663570     0.07800
C3230       C  0.65716694  0.24233566  0.39562885    -0.02300
Br3231     Br  0.64827502  0.22975231  0.40615122    -0.00900
Br3232     Br  0.64102646  0.26073405  0.40919056    -0.00900
Br3233     Br  0.68561978  0.24274574  0.36628989    -0.00900
Br3234     Br  0.68155357  0.27372953  0.37275334    -0.00900
C3235       C  0.75078690  0.17158277  0.37407991    -0.02000
C3236       C  0.74165499  0.16467491  0.38148327     0.07700
C3237       C  0.74592329  0.15556649  0.39067500    -0.02100
C3238       C  0.75922686  0.15387104  0.39288507    -0.02100
C3239       C  0.76832294  0.16132435  0.38600601     0.07800
C3240       C  0.76408810  0.16996408  0.37637577    -0.02300
Br3241     Br  0.77641737  0.18019415  0.36682245    -0.00900
Br3242     Br  0.74509295  0.18313709  0.36059491    -0.00900
Br3243     Br  0.76499070  0.14115016  0.40524682    -0.00900
Br3244     Br  0.73364902  0.14592313  0.40088585    -0.00900
C3245       C  0.62045048  0.36471762  0.59251418    -0.02000
C3246       C  0.62805081  0.35409394  0.58879513     0.07700
C3247       C  0.62545282  0.34173856  0.59387178    -0.02100
C3248       C  0.61557092  0.34010348  0.60303482    -0.02100
C3249       C  0.60828301  0.35082699  0.60714548     0.07800
C3250       C  0.61061968  0.36311623  0.60174965    -0.02300
Br3251     Br  0.60089308  0.37793073  0.60750794    -0.00900
Br3252     Br  0.62381284  0.38154230  0.58525182    -0.00900
Br3253     Br  0.61173054  0.32308591  0.60961108    -0.00900
Br3254     Br  0.63515650  0.32696880  0.58795139    -0.00900
C3255       C  0.66919419  0.35149365  0.48073151    -0.02000
C3256       C  0.66120529  0.34496192  0.48962661     0.07700
C3257       C  0.65113284  0.33700387  0.48508316    -0.02100
C3258       C  0.64947899  0.33510804  0.47172279    -0.02100
C3259       C  0.65788608  0.34113957  0.46284182     0.07800
C3260       C  0.66755887  0.34957717  0.46737829    -0.02300
Br3261     Br  0.67910753  0.35796421  0.45538922    -0.00900
Br3262     Br  0.68229984  0.36325686  0.48684291    -0.00900
Br3263     Br  0.63556152  0.32433824  0.46557314    -0.00900
Br3264     Br  0.64001939  0.32809878  0.49712635    -0.00900
C3265       C  0.86289123  0.37873843  0.56223090    -0.02000
C3266       C  0.86043644  0.37087811  0.57305362     0.07700
C3267       C  0.86738211  0.37286242  0.58457261    -0.02100
C3268       C  0.87678372  0.38267175  0.58526509    -0.02100
C3269       C  0.87927124  0.39053061  0.57443102     0.07800
C3270       C  0.87233592  0.38850333  0.56288619    -0.02300
Br3271     Br  0.87615454  0.39871636  0.54776977    -0.00900
Br3272     Br  0.85342570  0.37595521  0.54643965    -0.00900
Br3273     Br  0.88597927  0.38561278  0.60118180    -0.00900
Br3274     Br  0.86376537  0.36230741  0.59948997    -0.00900
C3275       C  0.74048190  0.34851265  0.56020799    -0.02000
C3276       C  0.73153085  0.34146227  0.56769202     0.07700
C3277       C  0.73599498  0.33367218  0.57793245    -0.02100
C3278       C  0.74936013  0.33243684  0.58022695    -0.02100
C3279       C  0.75835359  0.33881658  0.57217036     0.07800
C3280       C  0.75383292  0.34698867  0.56223462    -0.02300
Br3281     Br  0.76575869  0.35532201  0.55055097    -0.00900
Br3282     Br  0.73448580  0.36066667  0.54737633    -0.00900
Br3283     Br  0.75529303  0.32207061  0.59455396    -0.00900
Br3284     Br  0.72390042  0.32412547  0.58844312    -0.00900
C3285       C  0.83035243  0.24686877  0.55357309    -0.02000
C3286       C  0.84012037  0.24084216  0.56095701     0.07700
C3287       C  0.84690959  0.24809274  0.57028552    -0.02100
C3288       C  0.84399008  0.26125112  0.57216365    -0.02100
C3289       C  0.83453696  0.26734654  0.56446895     0.07800
C3290       C  0.82782762  0.26011832  0.55507568    -0.02300
Br3291     Br  0.81565205  0.26843587  0.54362354    -0.00900
Br3292     Br  0.81977077  0.23692800  0.54184612    -0.00900
Br3293     Br  0.85264496  0.27074894  0.58565414    -0.00900
Br3294     Br  0.86062284  0.24024408  0.58017085    -0.00900
C3295       C  0.85538817  0.17318737  0.47799240    -0.02000
C3296       C  0.84729871  0.16743839  0.48735220     0.07700
C3297       C  0.83708415  0.15934751  0.48334546    -0.02100
C3298       C  0.83499525  0.15705383  0.47011393    -0.02100
C3299       C  0.84264428  0.16336611  0.46074106     0.07800
C3300       C  0.85287895  0.17142547  0.46474761    -0.02300
Br3301     Br  0.86295230  0.18086992  0.45220555    -0.00900
Br3302     Br  0.87020276  0.18322563  0.48325750    -0.00900
Br3303     Br  0.82185293  0.14487101  0.46492818    -0.00900
Br3304     Br  0.82523436  0.15211180  0.49581597    -0.00900
C3305       C  0.63903451  0.37647876  0.34043845    -0.02000
C3306       C  0.64968602  0.38486036  0.33877274     0.07700
C3307       C  0.66047987  0.38366184  0.34703357    -0.02100
C3308       C  0.66052521  0.37434875  0.35696656    -0.02100
C3309       C  0.64976391  0.36620445  0.35880345     0.07800
C3310       C  0.63905685  0.36724707  0.35046142    -0.02300
Br3311     Br  0.62414156  0.35637960  0.35312985    -0.00900
Br3312     Br  0.62410042  0.37791735  0.32937814    -0.00900
Br3313     Br  0.67565581  0.37230436  0.36766603    -0.00900
Br3314     Br  0.67560344  0.39424314  0.34434519    -0.00900
C3315       C  0.87215674  0.62057227  0.34764265    -0.02000
C3316       C  0.87103872  0.60934155  0.34007799     0.07700
C3317       C  0.87978575  0.59906922  0.34187361    -0.02100
C3318       C  0.88940025  0.59988395  0.35145184    -0.02100
C3319       C  0.89023846  0.61096061  0.35934325     0.07800
C3320       C  0.88174473  0.62139818  0.35723443    -0.02300
Br3321     Br  0.88362083  0.63710990  0.36705720    -0.00900
Br3322     Br  0.86077155  0.63499728  0.34457477    -0.00900
Br3323     Br  0.90097559  0.58550602  0.35408821    -0.00900
Br3324     Br  0.87818917  0.58358226  0.33164599    -0.00900
C3325       C  0.63051836  0.61687775  0.32410556    -0.02000
C3326       C  0.63944855  0.61595201  0.31388495     0.07700
C3327       C  0.63852954  0.62450053  0.30333922    -0.02100
C3328       C  0.62858558  0.63380113  0.30290075    -0.02100
C3329       C  0.61956957  0.63472058  0.31311363     0.07800
C3330       C  0.62062983  0.62621851  0.32375083    -0.02300
Br3331     Br  0.60897582  0.62764992  0.33824219    -0.00900
Br3332     Br  0.63219048  0.60566174  0.33890911    -0.00900
Br3333     Br  0.62692657  0.64470437  0.28787558    -0.00900
Br3334     Br  0.65065863  0.62314086  0.28925025    -0.00900
C3335       C  0.74600272  0.59319392  0.30759163    -0.02000
C3336       C  0.74199743  0.58692959  0.31901778     0.07700
C3337       C  0.75132947  0.58292109  0.32809137    -0.02100
C3338       C  0.76458831  0.58470575  0.32556371    -0.02100
C3339       C  0.76862692  0.59094749  0.31411302     0.07800
C3340       C  0.75921945  0.59547683  0.30530383    -0.02300
Br3341     Br  0.76422293  0.60533577  0.29025625    -0.00900
Br3342     Br  0.73354999  0.59787078  0.29450116    -0.00900
Br3343     Br  0.77709624  0.57773235  0.33750688    -0.00900
Br3344     Br  0.74595578  0.57518326  0.34419358    -0.00900
C3345       C  0.65739768  0.50757045  0.31951209    -0.02000
C3346       C  0.66798346  0.51315333  0.31296566     0.07700
C3347       C  0.67536753  0.50552464  0.30441299    -0.02100
C3348       C  0.67213582  0.49247439  0.30237819    -0.02100
C3349       C  0.66129515  0.48700406  0.30860916     0.07800
C3350       C  0.65397509  0.49459896  0.31722817    -0.02300
Br3351     Br  0.63885955  0.48747549  0.32549853    -0.00900
Br3352     Br  0.64785842  0.51750248  0.33207900    -0.00900
Br3353     Br  0.68298410  0.48199102  0.29140275    -0.00900
Br3354     Br  0.68957406  0.51300716  0.29489304    -0.00900
C3355       C  0.85409151  0.59028725  0.22097283    -0.02000
C3356       C  0.84519599  0.59552104  0.21211172     0.07700
C3357       C  0.83454929  0.60271249  0.21665426    -0.02100
C3358       C  0.83244531  0.60399465  0.23002108    -0.02100
C3359       C  0.84084365  0.59792540  0.23887808     0.07800
C3360       C  0.85179820  0.59123754  0.23430822    -0.02300
Br3361     Br  0.86309927  0.58229983  0.24614062    -0.00900
Br3362     Br  0.86956472  0.58189901  0.21479118    -0.00900
Br3363     Br  0.81803525  0.61412333  0.23615674    -0.00900
Br3364     Br  0.82232914  0.61015371  0.20470117    -0.00900
C3365       C  0.62984711  0.39600658  0.09680124    -0.02000
C3366       C  0.62852103  0.38663265  0.10661860     0.07700
C3367       C  0.61806227  0.37792582  0.10626854    -0.02100
C3368       C  0.60890868  0.37864199  0.09624662    -0.02100
C3369       C  0.61009756  0.38813935  0.08655122     0.07800
C3370       C  0.62067475  0.39674384  0.08679152    -0.02300
Br3371     Br  0.62231693  0.41004654  0.07381385    -0.00900
Br3372     Br  0.64377305  0.40841824  0.09739934    -0.00900
Br3373     Br  0.59510222  0.36613665  0.09547787    -0.00900
Br3374     Br  0.61652128  0.36466149  0.11927612    -0.00900
C3375       C  0.65983678  0.39993067  0.21807849    -0.02000
C3376       C  0.65314587  0.40725876  0.20876146     0.07700
C3377       C  0.64422459  0.41670628  0.21277638    -0.02100
C3378       C  0.64221972  0.41900854  0.22603855    -0.02100
C3379       C  0.64952110  0.41224453  0.23539912     0.07800
C3380       C  0.65826967  0.40258086  0.23132046    -0.02300
Br3381     Br  0.66896054  0.39350514  0.24360844    -0.00900
Br3382     Br  0.67098403  0.38597385  0.21269054    -0.00900
Br3383     Br  0.62906863  0.43114489  0.23127667    -0.00900
Br3384     Br  0.63526937  0.42704278  0.20011274    -0.00900
C3385       C  0.86372612  0.39051620  0.13780718    -0.02000
C3386       C  0.85664499  0.39290042  0.12640767     0.07700
C3387       C  0.85971404  0.38607748  0.11501770    -0.02100
C3388       C  0.86970671  0.37685838  0.11508113    -0.02100
C3389       C  0.87665899  0.37442677  0.12649096     0.07800
C3390       C  0.87380106  0.38139491  0.13779538    -0.02300
Br3391     Br  0.88358690  0.37825860  0.15333392    -0.00900
Br3392     Br  0.85910966  0.39905043  0.15371191    -0.00900
Br3393     Br  0.87411628  0.36768984  0.09948508    -0.00900
Br3394     Br  0.85052075  0.38957038  0.09919796    -0.00900
C3395       C  0.74275421  0.41610195  0.12014722    -0.02000
C3396       C  0.75289314  0.41306398  0.12868908     0.07700
C3397       C  0.75034125  0.40577660  0.13990502    -0.02100
C3398       C  0.73769419  0.40160633  0.14259000    -0.02100
C3399       C  0.72742924  0.40506807  0.13431623     0.07800
C3400       C  0.73002267  0.41223494  0.12299867    -0.02300
Br3401     Br  0.71614440  0.41754008  0.11174469    -0.00900
Br3402     Br  0.74636617  0.42546814  0.10443526    -0.00900
Br3403     Br  0.73457565  0.39078804  0.15747336    -0.00900
Br3404     Br  0.76397778  0.40217374  0.15210887    -0.00900
C3405       C  0.83128128  0.49882335  0.13190374    -0.02000
C3406       C  0.82162574  0.49253966  0.13921153     0.07700
C3407       C  0.81469538  0.49952898  0.14864526    -0.02100
C3408       C  0.81743500  0.51267542  0.15076354    -0.02100
C3409       C  0.82723415  0.51886770  0.14359835     0.07800
C3410       C  0.83416849  0.51189424  0.13419306    -0.02300
Br3411     Br  0.84807120  0.52005155  0.12478532    -0.00900
Br3412     Br  0.84020278  0.48978678  0.11825423    -0.00900
Br3413     Br  0.80739786  0.52230269  0.16318355    -0.00900
Br3414     Br  0.80178532  0.49104967  0.15910961    -0.00900
C3415       C  0.62888116  0.84489002  0.09620740    -0.02000
C3416       C  0.63131863  0.85576444  0.08838147     0.07700
C3417       C  0.62379197  0.86700523  0.08980359    -0.02100
C3418       C  0.61377575  0.86734393  0.09895613    -0.02100
C3419       C  0.61128704  0.85645944  0.10669712     0.07800
C3420       C  0.61890310  0.84527033  0.10541021    -0.02300
Br3421     Br  0.61544425  0.83036103  0.11605837    -0.00900
Br3422     Br  0.63876605  0.82925740  0.09393332    -0.00900
Br3423     Br  0.60371044  0.88284956  0.10120870    -0.00900
Br3424     Br  0.62750516  0.88211234  0.07953528    -0.00900
C3425       C  0.66410346  0.84754419  0.97735235    -0.02000
C3426       C  0.65664427  0.84149754  0.98700322     0.07700
C3427       C  0.64614865  0.83357778  0.98347377    -0.02100
C3428       C  0.64325093  0.83159145  0.97034790    -0.02100
C3429       C  0.65119421  0.83702073  0.96065235     0.07800
C3430       C  0.66166957  0.84501364  0.96424377    -0.02300
Br3431     Br  0.67359502  0.85164173  0.95150773    -0.00900
Br3432     Br  0.67751370  0.85964375  0.98205832    -0.00900
Br3433     Br  0.62818598  0.82158155  0.96575753    -0.00900
Br3434     Br  0.63621534  0.82470001  0.99653860    -0.00900
C3435       C  0.84817613  0.62845288  0.08918713    -0.02000
C3436       C  0.83754466  0.63695014  0.08847434     0.07700
C3437       C  0.82748325  0.63602915  0.09760069    -0.02100
C3438       C  0.82813144  0.62677057  0.10750773    -0.02100
C3439       C  0.83880377  0.61838714  0.10828243     0.07800
C3440       C  0.84875736  0.61913242  0.09905115    -0.02300
Br3441     Br  0.86333914  0.60757868  0.10014570    -0.00900
Br3442     Br  0.86227557  0.62995289  0.07707184    -0.00900
Br3443     Br  0.81422188  0.62529226  0.11983265    -0.00900
Br3444     Br  0.81255291  0.64709944  0.09624797    -0.00900
C3445       C  0.63155767  0.62774957  0.88236973    -0.02000
C3446       C  0.63791287  0.63081340  0.87070500     0.07700
C3447       C  0.63542532  0.62339087  0.85956128    -0.02100
C3448       C  0.62665529  0.61298513  0.86008003    -0.02100
C3449       C  0.62013485  0.61010012  0.87167145     0.07800
C3450       C  0.62267221  0.61745460  0.88282838    -0.02300
Br3451     Br  0.61429109  0.61309147  0.89890340    -0.00900
Br3452     Br  0.63537302  0.63727885  0.89790603    -0.00900
Br3453     Br  0.62330876  0.60287754  0.84482001    -0.00900
Br3454     Br  0.64348564  0.62792354  0.84337774    -0.00900
C3455       C  0.65747935  0.74083734  0.87762679    -0.02000
C3456       C  0.66477019  0.73334323  0.88636167     0.07700
C3457       C  0.66938978  0.73900262  0.89785273    -0.02100
C3458       C  0.66725247  0.75218686  0.90032480    -0.02100
C3459       C  0.66018664  0.75976700  0.89145355     0.07800
C3460       C  0.65511306  0.75397468  0.88021151    -0.02300
Br3461     Br  0.64450273  0.76387133  0.86848695    -0.00900
Br3462     Br  0.65119189  0.73334304  0.86177508    -0.00900
Br3463     Br  0.67475899  0.75987751  0.91556576    -0.00900
Br3464     Br  0.67827749  0.72859988  0.91053852    -0.00900
C3465       C  0.82774833  0.66826869  0.96472906    -0.02000
C3466       C  0.83364766  0.65737121  0.95909214     0.07700
C3467       C  0.84165422  0.64935679  0.96663673    -0.02100
C3468       C  0.84388606  0.65229841  0.97971049    -0.02100
C3469       C  0.83794185  0.66316335  0.98537907     0.07800
C3470       C  0.82977586  0.67108487  0.97786064    -0.02300
Br3471     Br  0.82078519  0.68547421  0.98560436    -0.00900
Br3472     Br  0.81725253  0.67968853  0.95437489    -0.00900
Br3473     Br  0.85553788  0.64167621  0.98965891    -0.00900
Br3474     Br  0.84917868  0.63401552  0.95920888    -0.00900
C3475       C  0.75523335  0.64336489  0.88424537    -0.02000
C3476       C  0.76532506  0.65162752  0.88037008     0.07700
C3477       C  0.76241289  0.66308686  0.87361295    -0.02100
C3478       C  0.74946917  0.66629997  0.87087859    -0.02100
C3479       C  0.73928019  0.65847823  0.87554677     0.07800
C3480       C  0.74226536  0.64694341  0.88224099    -0.02300
Br3481     Br  0.72881886  0.63644884  0.88980404    -0.00900
Br3482     Br  0.75922365  0.62691740  0.89209055    -0.00900
Br3483     Br  0.74585912  0.68125092  0.86032633    -0.00900
Br3484     Br  0.77603132  0.67491430  0.86884372    -0.00900
C3485       C  0.86069023  0.87908960  0.07172442    -0.02000
C3486       C  0.85893134  0.86991327  0.06182572     0.07700
C3487       C  0.86596694  0.87111293  0.05021555    -0.02100
C3488       C  0.87501536  0.88116101  0.04869229    -0.02100
C3489       C  0.87705380  0.89010898  0.05873076     0.07800
C3490       C  0.86971246  0.88916375  0.07017916    -0.02300
Br3491     Br  0.87248682  0.90122083  0.08410329    -0.00900
Br3492     Br  0.85130129  0.87746248  0.08775178    -0.00900
Br3493     Br  0.88434685  0.88292063  0.03265761    -0.00900
Br3494     Br  0.86286554  0.85929635  0.03615251    -0.00900
C3495       C  0.74189229  0.84433439  0.05180362    -0.02000
C3496       C  0.73257262  0.83850023  0.05987530     0.07700
C3497       C  0.73660873  0.83059225  0.07022175    -0.02100
C3498       C  0.74987204  0.82866298  0.07253172    -0.02100
C3499       C  0.75914009  0.83418756  0.06420266     0.07800
C3500       C  0.75508491  0.84177982  0.05366061    -0.02300
Br3501     Br  0.76743086  0.84781430  0.04102580    -0.00900
Br3502     Br  0.73677333  0.85643248  0.03855127    -0.00900
Br3503     Br  0.75530200  0.81860410  0.08726742    -0.00900
Br3504     Br  0.72407353  0.82175311  0.08084394    -0.00900
C3505       C  0.84554751  0.75858485  0.06712623    -0.02000
C3506       C  0.83702551  0.76505461  0.05870769     0.07700
C3507       C  0.83114419  0.75823618  0.04849155    -0.02100
C3508       C  0.83350939  0.74497117  0.04689644    -0.02100
C3509       C  0.84205850  0.73847485  0.05531038     0.07800
C3510       C  0.84811925  0.74534828  0.06538331    -0.02300
Br3511     Br  0.86012559  0.73671654  0.07672459    -0.00900
Br3512     Br  0.85312533  0.76762697  0.08154143    -0.00900
Br3513     Br  0.82419745  0.73565056  0.03368211    -0.00900
Br3514     Br  0.82000130  0.76707497  0.03639794    -0.00900
C3515       C  0.85913852  0.11953008  0.60077104    -0.02000
C3516       C  0.84807488  0.11813172  0.60861006     0.07700
C3517       C  0.83741796  0.12640757  0.60676889    -0.02100
C3518       C  0.83787722  0.13612008  0.59725223    -0.02100
C3519       C  0.84904467  0.13769764  0.58959425     0.07800
C3520       C  0.85962463  0.12928200  0.59129693    -0.02300
Br3521     Br  0.87502647  0.13137063  0.58098657    -0.00900
Br3522     Br  0.87389853  0.10842918  0.60334574    -0.00900
Br3523     Br  0.82285936  0.14673290  0.59418075    -0.00900
Br3524     Br  0.82190196  0.12403924  0.61683981    -0.00900
C3525       C  0.82677746  0.99660947  0.63553815    -0.02000
C3526       C  0.83416784  0.98986725  0.62624794     0.07700
C3527       C  0.84487100  0.99603824  0.62043575    -0.02100
C3528       C  0.84839639  0.00863607  0.62418012    -0.02100
C3529       C  0.84100891  0.01534316  0.63345477     0.07800
C3530       C  0.83002658  0.00936298  0.63890778    -0.02300
Br3531     Br  0.81890081  0.01878626  0.65056092    -0.00900
Br3532     Br  0.81256919  0.98831008  0.64438121    -0.00900
Br3533     Br  0.86371894  0.01645216  0.61695312    -0.00900
Br3534     Br  0.85443274  0.98753911  0.60687070    -0.00900
C3535       C  0.62414029  0.88297503  0.60292139    -0.02000
C3536       C  0.63236451  0.89375034  0.60409660     0.07700
C3537       C  0.63087822  0.90435257  0.59568586    -0.02100
C3538       C  0.62105734  0.90427836  0.58629578    -0.02100
C3539       C  0.61277622  0.89352994  0.58515990     0.07800
C3540       C  0.61436903  0.88285705  0.59346006    -0.02300
Br3541     Br  0.60344988  0.86788394  0.59155893    -0.00900
Br3542     Br  0.62660795  0.86817434  0.61395623    -0.00900
Br3543     Br  0.61856861  0.91920459  0.57541242    -0.00900
Br3544     Br  0.64204814  0.91919219  0.59727442    -0.00900
C3545       C  0.73676529  0.91861166  0.61893481    -0.02000
C3546       C  0.73408703  0.90944032  0.62866892     0.07700
C3547       C  0.74439570  0.90299035  0.63481469    -0.02100
C3548       C  0.75727112  0.90615540  0.63177090    -0.02100
C3549       C  0.75997577  0.91536739  0.62206173     0.07800
C3550       C  0.74964411  0.92139723  0.61550087    -0.02300
Br3551     Br  0.75302105  0.93323135  0.60146975    -0.00900
Br3552     Br  0.72289404  0.92797596  0.61070168    -0.00900
Br3553     Br  0.77104026  0.89844596  0.64172613    -0.00900
Br3554     Br  0.74094993  0.88934763  0.64707743    -0.00900
C3555       C  0.87036832  0.09156240  0.84687419    -0.02000
C3556       C  0.86592309  0.10247887  0.84004876     0.07700
C3557       C  0.87102018  0.11476390  0.84294046    -0.02100
C3558       C  0.88056803  0.11610728  0.85255824    -0.02100
C3559       C  0.88502849  0.10518250  0.85933346     0.07800
C3560       C  0.87984410  0.09292727  0.85652653    -0.02300
Br3561     Br  0.88559158  0.07801621  0.86610480    -0.00900
Br3562     Br  0.86374489  0.07464301  0.84276801    -0.00900
Br3563     Br  0.88750673  0.13290543  0.85654785    -0.00900
Br3564     Br  0.86455388  0.12979797  0.83405274    -0.00900
C3565       C  0.84855628  0.08271736  0.73318938    -0.02000
C3566       C  0.83717064  0.08864088  0.73777717     0.07700
C3567       C  0.82816704  0.09368204  0.72885115    -0.02100
C3568       C  0.83025773  0.09230126  0.71547283    -0.02100
C3569       C  0.84155192  0.08618265  0.71090206     0.07800
C3570       C  0.85084863  0.08173997  0.71982245    -0.02300
Br3571     Br  0.86699071  0.07462557  0.71376034    -0.00900
Br3572     Br  0.86063268  0.07498523  0.74510316    -0.00900
Br3573     Br  0.81719223  0.09811892  0.70351419    -0.00900
Br3574     Br  0.81302015  0.10274629  0.73489051    -0.00900
C3575       C  0.63509783  0.11430211  0.81353702    -0.02000
C3576       C  0.63742750  0.10813164  0.82544038     0.07700
C3577       C  0.62984552  0.11126904  0.83629259    -0.02100
C3578       C  0.61983447  0.12040558  0.83520168    -0.02100
C3579       C  0.61756436  0.12663680  0.82332522     0.07800
C3580       C  0.62526370  0.12363318  0.81251729    -0.02300
Br3581     Br  0.62206482  0.13204278  0.79620942    -0.00900
Br3582     Br  0.64500504  0.10956103  0.79848677    -0.00900
Br3583     Br  0.60931201  0.12451939  0.85000757    -0.00900
Br3584     Br  0.63346094  0.10331913  0.85274328    -0.00900
C3585       C  0.74352901  0.08389791  0.80831990    -0.02000
C3586       C  0.73891163  0.07468046  0.81724847     0.07700
C3587       C  0.74781224  0.06723427  0.82443770    -0.02100
C3588       C  0.76118163  0.06863638  0.82233692    -0.02100
C3589       C  0.76574630  0.07761077  0.81318575     0.07800
C3590       C  0.75690108  0.08545523  0.80642162    -0.02300
Br3591     Br  0.76308629  0.09863998  0.79475116    -0.00900
Br3592     Br  0.73165421  0.09385870  0.79794838    -0.00900
Br3593     Br  0.77320782  0.05779524  0.83157668    -0.00900
Br3594     Br  0.74180208  0.05530081  0.83746239    -0.00900
C3595       C  0.66535558  0.87748377  0.84369627    -0.02000
C3596       C  0.65474979  0.87659505  0.83520239     0.07700
C3597       C  0.64540949  0.86687025  0.83703712    -0.02100
C3598       C  0.64648677  0.85828833  0.84753037    -0.02100
C3599       C  0.65691559  0.85939997  0.85620934     0.07800
C3600       C  0.66637728  0.86897000  0.85424256    -0.02300
Br3601     Br  0.68074520  0.87039123  0.86600891    -0.00900
Br3602     Br  0.67866338  0.89018633  0.84068541    -0.00900
Br3603     Br  0.63325291  0.84549137  0.85046632    -0.00900
Br3604     Br  0.63079077  0.86571562  0.82555735    -0.00900
C3605       C  0.66605127  0.91939563  0.72652543    -0.02000
C3606       C  0.65721400  0.91131498  0.73309751     0.07700
C3607       C  0.65044851  0.90177811  0.72607817    -0.02100
C3608       C  0.65285817  0.90002082  0.71277318    -0.02100
C3609       C  0.66156615  0.90823974  0.70618327     0.07800
C3610       C  0.66778590  0.91821810  0.71309581    -0.02300
Br3611     Br  0.67802057  0.93102723  0.70414504    -0.00900
Br3612     Br  0.67663369  0.93158127  0.73589196    -0.00900
Br3613     Br  0.64455903  0.88591447  0.70386337    -0.00900
Br3614     Br  0.63738638  0.89143126  0.73447498    -0.00900
C3615       C  0.66235487  0.98199695  0.82317810    -0.02000
C3616       C  0.65346248  0.97910766  0.81321396     0.07700
C3617       C  0.64724174  0.98932490  0.80663500    -0.02100
C3618       C  0.65061215  0.00221347  0.80923896    -0.02100
C3619       C  0.65971770  0.00505514  0.81893690     0.07800
C3620       C  0.66525302  0.99494324  0.82617075    -0.02300
Br3621     Br  0.67677021  0.99886306  0.84030856    -0.00900
Br3622     Br  0.67147136  0.96845044  0.83218232    -0.00900
Br3623     Br  0.64345698  0.01584754  0.79870605    -0.00900
Br3624     Br  0.63374244  0.98582960  0.79423787    -0.00900
C3625       C  0.09000883  0.86779712  0.84447084    -0.02000
C3626       C  0.10117882  0.86048267  0.84177288     0.07700
C3627       C  0.11254424  0.86263575  0.84896869    -0.02100
C3628       C  0.11286284  0.87235443  0.85848513    -0.02100
C3629       C  0.10178139  0.87986650  0.86095921     0.07800
C3630       C  0.09029225  0.87741605  0.85406895    -0.02300
Br3631     Br  0.07477348  0.88693530  0.85808607    -0.00900
Br3632     Br  0.07414647  0.86434055  0.83531622    -0.00900
Br3633     Br  0.12869107  0.87583993  0.86767138    -0.00900
Br3634     Br  0.12788066  0.85267935  0.84539842    -0.00900
C3635       C  0.12610921  0.83974481  0.59166346    -0.02000
C3636       C  0.13265672  0.85163830  0.59060160     0.07700
C3637       C  0.12988509  0.86171466  0.59927854    -0.02100
C3638       C  0.12050649  0.85995146  0.60894440    -0.02100
C3639       C  0.11379292  0.84813658  0.60987004     0.07800
C3640       C  0.11657480  0.83805575  0.60118785    -0.02300
Br3641     Br  0.10756039  0.82180292  0.60254416    -0.00900
Br3642     Br  0.13062253  0.82553058  0.58048424    -0.00900
Br3643     Br  0.11643345  0.87398107  0.62050060    -0.00900
Br3644     Br  0.13853857  0.87813238  0.59756364    -0.00900
C3645       C  0.09437951  0.84987659  0.71860961    -0.02000
C3646       C  0.08375026  0.84448902  0.71197336     0.07700
C3647       C  0.07556511  0.83568708  0.71844730    -0.02100
C3648       C  0.07768762  0.83271526  0.73153490    -0.02100
C3649       C  0.08841143  0.83795354  0.73811501     0.07800
C3650       C  0.09679062  0.84649249  0.73157342    -0.02300
Br3651     Br  0.11200228  0.85308010  0.74010452    -0.00900
Br3652     Br  0.10556617  0.86214688  0.71010766    -0.00900
Br3653     Br  0.06546167  0.82185255  0.74053891    -0.00900
Br3654     Br  0.06199724  0.82676743  0.70924814    -0.00900
C3655       C  0.88264652  0.87915333  0.60894205    -0.02000
C3656       C  0.88204961  0.86901228  0.61801582     0.07700
C3657       C  0.87134526  0.86808679  0.62642102    -0.02100
C3658       C  0.86140342  0.87734943  0.62587083    -0.02100
C3659       C  0.86208052  0.88756400  0.61687971     0.07800
C3660       C  0.87265031  0.88834175  0.60831735    -0.02300
Br3661     Br  0.87309821  0.90157019  0.59518220    -0.00900
Br3662     Br  0.89685996  0.88017396  0.59690636    -0.00900
Br3663     Br  0.84717116  0.87632142  0.63789603    -0.00900
Br3664     Br  0.87054760  0.85451937  0.63919498    -0.00900
C3665       C  0.99082771  0.83447116  0.64323708    -0.02000
C3666       C  0.98480370  0.84051033  0.63259090     0.07700
C3667       C  0.99205031  0.84887767  0.62463575    -0.02100
C3668       C  0.00512579  0.85140812  0.62745663    -0.02100
C3669       C  0.01114055  0.84537775  0.63810195     0.07800
C3670       C  0.00397471  0.83674535  0.64586202    -0.02300
Br3671     Br  0.01227616  0.82729177  0.65964817    -0.00900
Br3672     Br  0.98105292  0.82336135  0.65462508    -0.00900
Br3673     Br  0.01463983  0.86345673  0.61686310    -0.00900
Br3674     Br  0.98433216  0.85633672  0.60939355    -0.00900
C3675       C  0.88458771  0.62965084  0.59446043    -0.02000
C3676       C  0.89379414  0.61989077  0.59222521     0.07700
C3677       C  0.90495125  0.61917723  0.60003683    -0.02100
C3678       C  0.90697289  0.62831645  0.60988295    -0.02100
C3679       C  0.89788773  0.63824826  0.61193771     0.07800
C3680       C  0.88660855  0.63879002  0.60429238    -0.02300
Br3681     Br  0.87358855  0.65173947  0.60756547    -0.00900
Br3682     Br  0.86895232  0.63026486  0.58432063    -0.00900
Br3683     Br  0.92262996  0.62764381  0.61998695    -0.00900
Br3684     Br  0.91797788  0.60623019  0.59676955    -0.00900
C3685       C  0.91614259  0.74466811  0.62326020    -0.02000
C3686       C  0.90691363  0.74138953  0.63277073     0.07700
C3687       C  0.89903035  0.75114457  0.63811953    -0.02100
C3688       C  0.90100418  0.76415804  0.63472121    -0.02100
C3689       C  0.91040878  0.76743473  0.62540626     0.07800
C3690       C  0.91756784  0.75758487  0.61931891    -0.02300
Br3691     Br  0.92916504  0.76173468  0.60528127    -0.00900
Br3692     Br  0.92771239  0.73181016  0.61628700    -0.00900
Br3693     Br  0.89140361  0.77742485  0.64362640    -0.00900
Br3694     Br  0.88520172  0.74673693  0.64985864    -0.00900
C3695       C  0.88901797  0.64318856  0.84890711    -0.02000
C3696       C  0.88961041  0.65427210  0.84095881     0.07700
C3697       C  0.88010858  0.66397719  0.84228859    -0.02100
C3698       C  0.87000349  0.66249114  0.85128580    -0.02100
C3699       C  0.86939735  0.65138591  0.85911922     0.07800
C3700       C  0.87897906  0.64180435  0.85799863    -0.02300
Br3701     Br  0.87801158  0.62648609  0.86858099    -0.00900
Br3702     Br  0.90145538  0.62945301  0.84691316    -0.00900
Br3703     Br  0.85719010  0.67589830  0.85320304    -0.00900
Br3704     Br  0.88120864  0.67966917  0.83228083    -0.00900
C3705       C  0.90800643  0.66025133  0.73247443    -0.02000
C3706       C  0.91858434  0.66618753  0.73870459     0.07700
C3707       C  0.92627652  0.67513183  0.73180320    -0.02100
C3708       C  0.92361497  0.67781072  0.71873740    -0.02100
C3709       C  0.91296667  0.67193973  0.71257590     0.07800
C3710       C  0.90500196  0.66340713  0.71959936    -0.02300
Br3711     Br  0.88947381  0.65658160  0.71185558    -0.00900
Br3712     Br  0.89804946  0.64709130  0.74117265    -0.00900
Br3713     Br  0.93497569  0.68917594  0.70922683    -0.00900
Br3714     Br  0.94019288  0.68426646  0.74024037    -0.00900
C3715       C  0.12943133  0.62730044  0.83292052    -0.02000
C3716       C  0.12153486  0.62887616  0.82196870     0.07700
C3717       C  0.12298693  0.62053993  0.81131939    -0.02100
C3718       C  0.13241404  0.61074853  0.81156026    -0.02100
C3719       C  0.14035834  0.60915834  0.82252693     0.07800
C3720       C  0.13876639  0.61742725  0.83324217    -0.02300
Br3721     Br  0.14890993  0.61490730  0.84867613    -0.00900
Br3722     Br  0.12714036  0.63841388  0.84769268    -0.00900
Br3723     Br  0.13488889  0.60008522  0.79648276    -0.00900
Br3724     Br  0.11248738  0.62292779  0.79609432    -0.00900
C3725       C  0.09039985  0.74028234  0.81706843    -0.02000
C3726       C  0.09743760  0.73203404  0.80884750     0.07700
C3727       C  0.10677002  0.73728172  0.80043483    -0.02100
C3728       C  0.10838976  0.75077214  0.79961903    -0.02100
C3729       C  0.10051895  0.75909810  0.80704096     0.07800
C3730       C  0.09171812  0.75376280  0.81600612    -0.02300
Br3731     Br  0.08060097  0.76472400  0.82618268    -0.00900
Br3732     Br  0.07916389  0.73306246  0.83010823    -0.00900
Br3733     Br  0.12160948  0.75779100  0.78847364    -0.00900
Br3734     Br  0.11694569  0.72606681  0.78958715    -0.00900
C3735       C  0.01203596  0.66844378  0.81921442    -0.02000
C3736       C  0.02034320  0.66043201  0.81195578     0.07700
C3737       C  0.01507790  0.65009126  0.80482317    -0.02100
C3738       C  0.00161045  0.64817911  0.80448292    -0.02100
C3739       C  0.99322926  0.65688511  0.81081069     0.07800
C3740       C  0.99852657  0.66684811  0.81846280    -0.02300
Br3741     Br  0.98743967  0.67890094  0.82734994    -0.00900
Br3742     Br  0.01915421  0.68135371  0.83062407    -0.00900
Br3743     Br  0.99470169  0.63327309  0.79565244    -0.00900
Br3744     Br  0.02613144  0.63892266  0.79478804    -0.00900
loop_ 
_geom_bond_atom_site_label_1 
_geom_bond_atom_site_label_2 
_geom_bond_distance 
_geom_bond_site_symmetry_2 
_ccdc_geom_bond_type 
N1            N2   1.321       .  A
N1            C5   1.346       .  A
N1           Cu9   2.072       .  S
N2            C3   1.345       .  A
N2           Cu8   2.080       .  S
C3            C4   1.386       .  A
C3            H6   1.082       .  S
C4            C5   1.385       .  A
C4         C3736   1.486       .  S
C5            H7   1.082       .  S
Cu8          N11   2.079       .  S
Cu9          N19   2.072       .  S
Cu10         N12   2.077       .  S
Cu10         N18   2.077       .  S
N11          N12   1.323       .  A
N11          C15   1.343       .  A
N12          C13   1.348       .  A
C13          C14   1.384       .  A
C13          H16   1.082       .  S
C14          C15   1.383       .  A
C14        C3726   1.481       .  S
C15          H17   1.082       .  S
N18          N19   1.323       .  A
N18          C22   1.345       .  A
N19          C20   1.345       .  A
C20          C21   1.382       .  A
C20          H23   1.082       .  S
C21          C22   1.382       .  A
C21        C3716   1.477       .  S
C22          H24   1.082       .  S
N25          N26   1.322       .  A
N25          C29   1.350       .  A
N25         Cu33   2.089       .  S
N26          C27   1.342       .  A
N26         Cu32   2.065       .  S
C27          C28   1.382       .  A
C27          H30   1.082       .  S
C28          C29   1.390       .  A
C28        C3739   1.487       .  S
C29          H31   1.081       .  S
Cu32         N35   2.064       .  S
Cu33         N43   2.089       .  S
Cu34         N36   2.080       .  S
Cu34         N42   2.081       .  S
N35          N36   1.320       .  A
N35          C39   1.343       .  A
N36          C37   1.346       .  A
C37          C38   1.388       .  A
C37          H40   1.082       .  S
C38          C39   1.384       .  A
C38        C3706   1.486       .  S
C39          H41   1.081       .  S
N42          N43   1.324       .  A
N42          C46   1.346       .  A
N43          C44   1.347       .  A
C44          C45   1.386       .  A
C44          H47   1.082       .  S
C45          C46   1.384       .  A
C45        C3696   1.486       .  S
C46          H48   1.082       .  S
N49          N50   1.323       .  A
N49          C53   1.346       .  A
N49         Cu57   2.083       .  S
N50          C51   1.345       .  A
N50         Cu56   2.072       .  S
C51          C52   1.383       .  A
C51          H54   1.082       .  S
C52          C53   1.385       .  A
C52        C3709   1.483       .  S
C53          H55   1.082       .  S
Cu56         N59   2.072       .  S
Cu57         N67   2.082       .  S
Cu58         N60   2.064       .  S
Cu58         N66   2.064       .  S
N59          N60   1.320       .  A
N59          C63   1.344       .  A
N60          C61   1.344       .  A
C61          C62   1.384       .  A
C61          H64   1.082       .  S
C62          C63   1.386       .  A
C62        C3686   1.483       .  S
C63          H65   1.082       .  S
N66          N67   1.322       .  A
N66          C70   1.342       .  A
N67          C68   1.347       .  A
C68          C69   1.386       .  A
C68          H71   1.082       .  S
C69          C70   1.381       .  A
C69        C3679   1.480       .  S
C70          H72   1.082       .  S
N73          N74   1.320       .  A
N73          C77   1.347       .  A
N73         Cu81   2.071       .  S
N74          C75   1.341       .  A
N74         Cu80   2.059       .  S
C75          C76   1.381       .  A
C75          H78   1.082       .  S
C76          C77   1.387       .  A
C76        C3689   1.480       .  S
C77          H79   1.082       .  S
Cu80         N83   2.059       .  S
Cu81         N91   2.073       .  S
Cu82         N84   2.087       .  S
Cu82         N90   2.088       .  S
N83          N84   1.321       .  A
N83          C87   1.342       .  A
N84          C85   1.348       .  A
C85          C86   1.389       .  A
C85          H88   1.082       .  S
C86          C87   1.381       .  A
C86        C3666   1.483       .  S
C87          H89   1.082       .  S
N90          N91   1.325       .  A
N90          C94   1.347       .  A
N91          C92   1.344       .  A
C92          C93   1.381       .  A
C92          H95   1.082       .  S
C93          C94   1.385       .  A
C93        C3656   1.481       .  S
C94          H96   1.082       .  S
N97          N98   1.322       .  A
N97         C101   1.345       .  A
N97        Cu105   2.071       .  S
N98          C99   1.345       .  A
N98        Cu104   2.079       .  S
C99         C100   1.386       .  A
C99         H102   1.082       .  S
C100        C101   1.385       .  A
C100       C3646   1.485       .  S
C101        H103   1.082       .  S
Cu104       N107   2.079       .  S
Cu105       N115   2.071       .  S
Cu106       N108   2.072       .  S
Cu106       N114   2.072       .  S
N107        N108   1.322       .  A
N107        C111   1.345       .  A
N108        C109   1.345       .  A
C109        C110   1.384       .  A
C109        H112   1.082       .  S
C110        C111   1.385       .  A
C110       C3669   1.484       .  S
C111        H113   1.082       .  S
N114        N115   1.323       .  A
N114        C118   1.345       .  A
N115        C116   1.344       .  A
C116        C117   1.381       .  A
C116        H119   1.082       .  S
C117        C118   1.382       .  A
C117       C3639   1.474       .  S
C118        H120   1.082       .  S
N121        N122   1.322       .  A
N121        C125   1.348       .  A
N121       Cu129   2.085       .  S
N122        C123   1.343       .  A
N122       Cu128   2.068       .  S
C123        C124   1.383       .  A
C123        H126   1.082       .  S
C124        C125   1.388       .  A
C124       C3729   1.485       .  S
C125        H127   1.081       .  S
Cu128       N131   2.068       .  S
Cu129       N139   2.086       .  S
Cu130       N132   2.084       .  S
Cu130       N138   2.084       .  S
N131        N132   1.322       .  A
N131        C135   1.343       .  A
N132        C133   1.348       .  A
C133        C134   1.387       .  A
C133        H136   1.082       .  S
C134        C135   1.383       .  A
C134       C3649   1.484       .  S
C135        H137   1.082       .  S
N138        N139   1.324       .  A
N138        C142   1.346       .  A
N139        C140   1.348       .  A
C140        C141   1.384       .  A
C140        H143   1.082       .  S
C141        C142   1.383       .  A
C141       C3626   1.482       .  S
C142        H144   1.082       .  S
N145        N146   1.320       .  A
N145        C149   1.347       .  A
N145       Cu153   2.070       .  S
N146        C147   1.342       .  A
N146       Cu152   2.069       .  S
C147        C148   1.385       .  A
C147        H150   1.082       .  S
C148        C149   1.388       .  A
C148       C3616   1.486       .  S
C149        H151   1.081       .  S
Cu152       N155   2.069       .  S
Cu153       N163   2.071       .  S
Cu154       N156   2.091       .  S
Cu154       N162   2.092       .  S
N155        N156   1.322       .  A
N155        C159   1.343       .  A
N156        C157   1.349       .  A
C157        C158   1.390       .  A
C157        H160   1.082       .  S
C158        C159   1.384       .  A
C158       C3606   1.491       .  S
C159        H161   1.081       .  S
N162        N163   1.325       .  A
N162        C166   1.349       .  A
N163        C164   1.343       .  A
C164        C165   1.379       .  A
C164        H167   1.082       .  S
C165        C166   1.385       .  A
C165       C3596   1.478       .  S
C166        H168   1.082       .  S
N169        N170   1.322       .  A
N169        C173   1.347       .  A
N169       Cu177   2.082       .  S
N170        C171   1.343       .  A
N170       Cu176   2.065       .  S
C171        C172   1.382       .  A
C171        H174   1.082       .  S
C172        C173   1.387       .  A
C172       C3586   1.482       .  S
C173        H175   1.082       .  S
Cu176       N179   2.065       .  S
Cu177       N187   2.083       .  S
Cu178       N180   2.073       .  S
Cu178       N186   2.073       .  S
N179        N180   1.321       .  A
N179        C183   1.343       .  A
N180        C181   1.345       .  A
C181        C182   1.385       .  A
C181        H184   1.082       .  S
C182        C183   1.382       .  A
C182       C3619   1.479       .  S
C183        H185   1.083       .  S
N186        N187   1.324       .  A
N186        C190   1.344       .  A
N187        C188   1.347       .  A
C188        C189   1.384       .  A
C188        H191   1.082       .  S
C189        C190   1.380       .  A
C189       C3576   1.477       .  S
C190        H192   1.082       .  S
N193        N194   1.321       .  A
N193        C197   1.347       .  A
N193       Cu201   2.076       .  S
N194        C195   1.343       .  A
N194       Cu200   2.067       .  S
C195        C196   1.382       .  A
C195        H198   1.082       .  S
C196        C197   1.384       .  A
C196       C3589   1.479       .  S
C197        H199   1.082       .  S
Cu200       N203   2.067       .  S
Cu201       N211   2.077       .  S
Cu202       N204   2.090       .  S
Cu202       N210   2.090       .  S
N203        N204   1.322       .  A
N203        C207   1.344       .  A
N204        C205   1.348       .  A
C205        C206   1.388       .  A
C205        H208   1.081       .  S
C206        C207   1.382       .  A
C206       C3566   1.485       .  S
C207        H209   1.082       .  S
N210        N211   1.324       .  A
N210        C214   1.348       .  A
N211        C212   1.345       .  A
C212        C213   1.382       .  A
C212        H215   1.082       .  S
C213        C214   1.385       .  A
C213       C3556   1.481       .  S
C214        H216   1.082       .  S
N217        N218   1.321       .  A
N217        C221   1.346       .  A
N217       Cu225   2.072       .  S
N218        C219   1.345       .  A
N218       Cu224   2.077       .  S
C219        C220   1.385       .  A
C219        H222   1.082       .  S
C220        C221   1.385       .  A
C220       C3546   1.484       .  S
C221        H223   1.082       .  S
Cu224       N227   2.077       .  S
Cu225       N235   2.073       .  S
Cu226       N228   2.085       .  S
Cu226       N234   2.086       .  S
N227        N228   1.322       .  A
N227        C231   1.344       .  A
N228        C229   1.348       .  A
C229        C230   1.389       .  A
C229        H232   1.081       .  S
C230        C231   1.386       .  A
C230       C3609   1.491       .  S
C231        H233   1.081       .  S
N234        N235   1.324       .  A
N234        C238   1.347       .  A
N235        C236   1.345       .  A
C236        C237   1.381       .  A
C236        H239   1.082       .  S
C237        C238   1.384       .  A
C237       C3536   1.478       .  S
C238        H240   1.082       .  S
N241        N242   1.321       .  A
N241        C245   1.345       .  A
N241       Cu249   2.075       .  S
N242        C243   1.344       .  A
N242       Cu248   2.073       .  S
C243        C244   1.385       .  A
C243        H246   1.082       .  S
C244        C245   1.386       .  A
C244       C3549   1.486       .  S
C245        H247   1.082       .  S
Cu248       N251   2.072       .  S
Cu249       N259   2.075       .  S
Cu250       N252   2.075       .  S
Cu250       N258   2.076       .  S
N251        N252   1.321       .  A
N251        C255   1.344       .  A
N252        C253   1.346       .  A
C253        C254   1.386       .  A
C253        H256   1.082       .  S
C254        C255   1.386       .  A
C254       C3526   1.486       .  S
C255        H257   1.081       .  S
N258        N259   1.323       .  A
N258        C262   1.344       .  A
N259        C260   1.346       .  A
C260        C261   1.384       .  A
C260        H263   1.082       .  S
C261        C262   1.383       .  A
C261       C3659   1.480       .  S
C262        H264   1.082       .  S
N265        N266   1.321       .  A
N265        C269   1.346       .  A
N265       Cu273   2.073       .  S
N266        C267   1.345       .  A
N266       Cu272   2.075       .  S
C267        C268   1.386       .  A
C267        H270   1.082       .  S
C268        C269   1.385       .  A
C268       C3529   1.484       .  S
C269        H271   1.082       .  S
Cu272       N275   2.076       .  S
Cu273       N283   2.073       .  S
Cu274       N276   2.085       .  S
Cu274       N282   2.086       .  S
N275        N276   1.323       .  A
N275        C279   1.344       .  A
N276        C277   1.348       .  A
C277        C278   1.387       .  A
C277        H280   1.082       .  S
C278        C279   1.383       .  A
C278       C3569   1.485       .  S
C279        H281   1.082       .  S
N282        N283   1.323       .  A
N282        C286   1.347       .  A
N283        C284   1.345       .  A
C284        C285   1.382       .  A
C284        H287   1.082       .  S
C285        C286   1.385       .  A
C285       C3516   1.481       .  S
C286        H288   1.082       .  S
N289        N290   1.321       .  A
N289        C293   1.345       .  A
N289       Cu297   2.075       .  S
N290        C291   1.343       .  A
N290       Cu296   2.054       .  S
C291        C292   1.381       .  A
C291        H294   1.082       .  S
C292        C293   1.385       .  A
C292       C3499   1.477       .  S
C293        H295   1.082       .  S
Cu296       N299   2.054       .  S
Cu297       N307   2.077       .  S
Cu298       N300   2.085       .  S
Cu298       N306   2.085       .  S
N299        N300   1.322       .  A
N299        C303   1.340       .  A
N300        C301   1.348       .  A
C301        C302   1.387       .  A
C301        H304   1.082       .  S
C302        C303   1.379       .  A
C302       C3506   1.479       .  S
C303        H305   1.082       .  S
N306        N307   1.324       .  A
N306        C310   1.346       .  A
N307        C308   1.346       .  A
C308        C309   1.383       .  A
C308        H311   1.082       .  S
C309        C310   1.385       .  A
C309       C3486   1.482       .  S
C310        H312   1.082       .  S
N313        N314   1.322       .  A
N313        C317   1.348       .  A
N313       Cu321   2.080       .  S
N314        C315   1.343       .  A
N314       Cu320   2.069       .  S
C315        C316   1.382       .  A
C315        H318   1.082       .  S
C316        C317   1.386       .  A
C316       C3476   1.481       .  S
C317        H319   1.082       .  S
Cu320       N323   2.069       .  S
Cu321       N331   2.080       .  S
Cu322       N324   2.077       .  S
Cu322       N330   2.078       .  S
N323        N324   1.322       .  A
N323        C327   1.345       .  A
N324        C325   1.346       .  A
C325        C326   1.384       .  A
C325        H328   1.082       .  S
C326        C327   1.382       .  A
C326       C3466   1.479       .  S
C327        H329   1.082       .  S
N330        N331   1.324       .  A
N330        C334   1.346       .  A
N331        C332   1.346       .  A
C332        C333   1.383       .  A
C332        H335   1.082       .  S
C333        C334   1.382       .  A
C333       C3699   1.479       .  S
C334        H336   1.082       .  S
N337        N338   1.323       .  A
N337        C341   1.347       .  A
N337       Cu345   2.083       .  S
N338        C339   1.344       .  A
N338       Cu344   2.073       .  S
C339        C340   1.383       .  A
C339        H342   1.081       .  S
C340        C341   1.385       .  A
C340       C3456   1.482       .  S
C341        H343   1.082       .  S
Cu344       N347   2.073       .  S
Cu345       N355   2.083       .  S
Cu346       N348   2.079       .  S
Cu346       N354   2.080       .  S
N347        N348   1.321       .  A
N347        C351   1.345       .  A
N348        C349   1.346       .  A
C349        C350   1.387       .  A
C349        H352   1.082       .  S
C350        C351   1.386       .  A
C350       C3479   1.489       .  S
C351        H353   1.082       .  S
N354        N355   1.323       .  A
N354        C358   1.346       .  A
N355        C356   1.347       .  A
C356        C357   1.385       .  A
C356        H359   1.082       .  S
C357        C358   1.383       .  A
C357       C3446   1.483       .  S
C358        H360   1.082       .  S
N361        N362   1.322       .  A
N361        C365   1.346       .  A
N361       Cu369   2.075       .  S
N362        C363   1.343       .  A
N362       Cu368   2.069       .  S
C363        C364   1.383       .  A
C363        H366   1.081       .  S
C364        C365   1.385       .  A
C364       C3509   1.481       .  S
C365        H367   1.082       .  S
Cu368       N371   2.070       .  S
Cu369       N379   2.075       .  S
Cu370       N372   2.069       .  S
Cu370       N378   2.069       .  S
N371        N372   1.321       .  A
N371        C375   1.344       .  A
N372        C373   1.345       .  A
C373        C374   1.384   1_554  A
C373        H376   1.082       .  S
C374        C375   1.384   1_556  A
C374       C3469   1.480       .  S
C375        H377   1.082   1_554  S
N378        N379   1.323       .  A
N378        C382   1.344       .  A
N379        C380   1.345       .  A
C380        C381   1.382       .  A
C380        H383   1.082       .  S
C381        C382   1.381       .  A
C381       C3436   1.475       .  S
C382        H384   1.082       .  S
N385        N386   1.321       .  A
N385        C389   1.346       .  A
N385       Cu393   2.070       .  S
N386        C387   1.342       .  A
N386       Cu392   2.066       .  S
C387        C388   1.382       .  A
C387        H390   1.082       .  S
C388        C389   1.385       .  A
C388       C3496   1.479       .  S
C389        H391   1.082       .  S
Cu392       N395   2.066       .  S
Cu393       N403   2.071       .  S
Cu394       N396   2.066       .  S
Cu394       N402   2.067       .  S
N395        N396   1.321       .  A
N395        C399   1.342       .  A
N396        C397   1.346       .  A
C397        C398   1.384       .  A
C397        H400   1.081       .  S
C398        C399   1.383       .  A
C398       C3426   1.478   1_554  S
C399        H401   1.082       .  S
N402        N403   1.323       .  A
N402        C406   1.343       .  A
N403        C404   1.345       .  A
C404        C405   1.381       .  A
C404        H407   1.082       .  S
C405        C406   1.379       .  A
C405       C3416   1.472       .  S
C406        H408   1.082       .  S
N409        N410   1.320       .  A
N409        C413   1.345       .  A
N409       Cu417   2.075       .  S
N410        C411   1.344       .  A
N410       Cu416   2.062       .  S
C411        C412   1.384       .  A
C411        H414   1.082       .  S
C412        C413   1.386       .  A
C412       C3459   1.482       .  S
C413        H415   1.082       .  S
Cu416       N419   2.063       .  S
Cu417       N427   2.075       .  S
Cu418       N420   2.080       .  S
Cu418       N426   2.081       .  S
N419        N420   1.322       .  A
N419        C423   1.342       .  A
N420        C421   1.346       .  A
C421        C422   1.388       .  A
C421        H424   1.082       .  S
C422        C423   1.382       .  A
C422       C3429   1.484       .  S
C423        H425   1.082       .  S
N426        N427   1.324       .  A
N426        C430   1.346       .  A
N427        C428   1.345       .  A
C428        C429   1.381       .  A
C428        H431   1.082       .  S
C429        C430   1.383       .  A
C429       C3599   1.477       .  S
C430        H432   1.082       .  S
N433        N434   1.322       .  A
N433        C437   1.345       .  A
N433       Cu441   2.078       .  S
N434        C435   1.345       .  A
N434       Cu440   2.073       .  S
C435        C436   1.384       .  A
C435        H438   1.082       .  S
C436        C437   1.384       .  A
C436       C3406   1.482       .  S
C437        H439   1.082       .  S
Cu440       N443   2.073       .  S
Cu441       N451   2.078       .  S
Cu442       N444   2.071       .  S
Cu442       N450   2.071       .  S
N443        N444   1.323       .  A
N443        C447   1.345       .  A
N444        C445   1.344       .  A
C445        C446   1.382       .  A
C445        H448   1.082       .  S
C446        C447   1.383       .  A
C446       C3396   1.477       .  S
C447        H449   1.082       .  S
N450        N451   1.322       .  A
N450        C454   1.345       .  A
N451        C452   1.346       .  A
C452        C453   1.384       .  A
C452        H455   1.082       .  S
C453        C454   1.383       .  A
C453       C3386   1.480       .  S
C454        H456   1.082       .  S
N457        N458   1.321       .  A
N457        C461   1.347       .  A
N457       Cu465   2.073       .  S
N458        C459   1.342       .  A
N458       Cu464   2.066       .  S
C459        C460   1.382       .  A
C459        H462   1.082       .  S
C460        C461   1.386       .  A
C460       C3399   1.481       .  S
C461        H463   1.082       .  S
Cu464       N467   2.066       .  S
Cu465       N475   2.074       .  S
Cu466       N468   2.083       .  S
Cu466       N474   2.084       .  S
N467        N468   1.322       .  A
N467        C471   1.343       .  A
N468        C469   1.348       .  A
C469        C470   1.387       .  A
C469        H472   1.082       .  S
C470        C471   1.382       .  A
C470       C3376   1.482       .  S
C471        H473   1.082       .  S
N474        N475   1.324       .  A
N474        C478   1.346       .  A
N475        C476   1.345       .  A
C476        C477   1.382       .  A
C476        H479   1.082       .  S
C477        C478   1.384       .  A
C477       C3366   1.480       .  S
C478        H480   1.082       .  S
N481        N482   1.322       .  A
N481        C485   1.347       .  A
N481       Cu489   2.073       .  S
N482        C483   1.341       .  A
N482       Cu488   2.065       .  S
C483        C484   1.380       .  A
C483        H486   1.082       .  S
C484        C485   1.385       .  A
C484       C3356   1.477       .  S
C485        H487   1.082       .  S
Cu488       N491   2.065       .  S
Cu489       N499   2.073       .  S
Cu490       N492   2.072       .  S
Cu490       N498   2.072       .  S
N491        N492   1.321       .  A
N491        C495   1.344       .  A
N492        C493   1.345       .  A
C493        C494   1.384       .  A
C493        H496   1.082       .  S
C494        C495   1.383       .  A
C494       C3409   1.479       .  S
C495        H497   1.081       .  S
N498        N499   1.324       .  A
N498        C502   1.345       .  A
N499        C500   1.344       .  A
C500        C501   1.381       .  A
C500        H503   1.082       .  S
C501        C502   1.380       .  A
C501       C3439   1.471       .  S
C502        H504   1.082       .  S
N505        N506   1.322       .  A
N505        C509   1.346       .  A
N505       Cu513   2.080       .  S
N506        C507   1.344       .  A
N506       Cu512   2.071       .  S
C507        C508   1.383       .  A
C507        H510   1.082       .  S
C508        C509   1.386       .  A
C508       C3336   1.483       .  S
C509        H511   1.082       .  S
Cu512       N515   2.071       .  S
Cu513       N523   2.080       .  S
Cu514       N516   2.082       .  S
Cu514       N522   2.083       .  S
N515        N516   1.322       .  A
N515        C519   1.345       .  A
N516        C517   1.346       .  A
C517        C518   1.386       .  A
C517        H520   1.082       .  S
C518        C519   1.384       .  A
C518       C3346   1.485       .  S
C519        H521   1.081       .  S
N522        N523   1.323       .  A
N522        C526   1.346       .  A
N523        C524   1.347       .  A
C524        C525   1.384       .  A
C524        H527   1.082       .  S
C525        C526   1.384       .  A
C525       C3326   1.481       .  S
C526        H528   1.081       .  S
N529        N530   1.322       .  A
N529        C533   1.347       .  A
N529       Cu537   2.084       .  S
N530        C531   1.343       .  A
N530       Cu536   2.068       .  S
C531        C532   1.384       .  A
C531        H534   1.082       .  S
C532        C533   1.388       .  A
C532       C3339   1.487       .  S
C533        H535   1.082       .  S
Cu536       N539   2.068       .  S
Cu537       N547   2.084       .  S
Cu538       N540   2.070       .  S
Cu538       N546   2.070       .  S
N539        N540   1.321       .  A
N539        C543   1.344       .  A
N540        C541   1.345       .  A
C541        C542   1.384       .  A
C541        H544   1.082       .  S
C542        C543   1.383       .  A
C542       C3359   1.479       .  S
C543        H545   1.082       .  S
N546        N547   1.323       .  A
N546        C550   1.345       .  A
N547        C548   1.346       .  A
C548        C549   1.384       .  A
C548        H551   1.082       .  S
C549        C550   1.381       .  A
C549       C3316   1.477       .  S
C550        H552   1.082       .  S
N553        N554   1.322       .  A
N553        C557   1.349       .  A
N553       Cu561   2.087       .  S
N554        C555   1.344       .  A
N554       Cu560   2.072       .  S
C555        C556   1.383       .  A
C555        H558   1.082       .  S
C556        C557   1.387       .  A
C556       C3349   1.485       .  S
C557        H559   1.082       .  S
Cu560       N563   2.073       .  S
Cu561       N571   2.088       .  S
Cu562       N564   2.085       .  S
Cu562       N570   2.086       .  S
N563        N564   1.321       .  A
N563        C567   1.344       .  A
N564        C565   1.347       .  A
C565        C566   1.389       .  A
C565        H568   1.081       .  S
C566        C567   1.385       .  A
C566       C3379   1.489       .  S
C567        H569   1.082       .  S
N570        N571   1.324       .  A
N570        C574   1.347       .  A
N571        C572   1.347       .  A
C572        C573   1.386       .  A
C572        H575   1.082       .  S
C573        C574   1.386       .  A
C573       C3306   1.488       .  S
C574        H576   1.082       .  S
N577        N578   1.322       .  A
N577        C581   1.349       .  A
N577       Cu585   2.085       .  S
N578        C579   1.341       .  A
N578       Cu584   2.063       .  S
C579        C580   1.381       .  A
C579        H582   1.082       .  S
C580        C581   1.388       .  A
C580       C3286   1.484       .  S
C581        H583   1.082       .  S
Cu584       N587   2.064       .  S
Cu585       N595   2.086       .  S
Cu586       N588   2.078       .  S
Cu586       N594   2.079       .  S
N587        N588   1.320       .  A
N587        C591   1.343       .  A
N588        C589   1.347       .  A
C589        C590   1.387       .  A
C589        H592   1.082       .  S
C590        C591   1.383       .  A
C590       C3296   1.484       .  S
C591        H593   1.082       .  S
N594        N595   1.324       .  A
N594        C598   1.346       .  A
N595        C596   1.347       .  A
C596        C597   1.385       .  A
C596        H599   1.082       .  S
C597        C598   1.382       .  A
C597       C3519   1.482       .  S
C598        H600   1.082       .  S
N601        N602   1.321       .  A
N601        C605   1.347       .  A
N601       Cu609   2.083       .  S
N602        C603   1.343       .  A
N602       Cu608   2.061       .  S
C603        C604   1.382       .  A
C603        H606   1.082       .  S
C604        C605   1.388       .  A
C604       C3279   1.484       .  S
C605        H607   1.082       .  S
Cu608       N611   2.061       .  S
Cu609       N619   2.084       .  S
Cu610       N612   2.082       .  S
Cu610       N618   2.083       .  S
N611        N612   1.321       .  A
N611        C615   1.342       .  A
N612        C613   1.348       .  A
C613        C614   1.387       .  A
C613        H616   1.082       .  S
C614        C615   1.381       .  A
C614       C3289   1.482       .  S
C615        H617   1.082       .  S
N618        N619   1.325       .  A
N618        C622   1.346       .  A
N619        C620   1.346       .  A
C620        C621   1.382       .  A
C620        H623   1.082       .  S
C621        C622   1.382       .  A
C621       C3266   1.477       .  S
C622        H624   1.082       .  S
N625        N626   1.322       .  A
N625        C629   1.347       .  A
N625       Cu633   2.071       .  S
N626        C627   1.343       .  A
N626       Cu632   2.076       .  S
C627        C628   1.384       .  A
C627        H630   1.082       .  S
C628        C629   1.385       .  A
C628       C3276   1.482       .  S
C629        H631   1.082       .  S
Cu632       N635   2.076       .  S
Cu633       N643   2.071       .  S
Cu634       N636   2.071       .  S
Cu634       N642   2.070       .  S
N635        N636   1.322       .  A
N635        C639   1.344       .  A
N636        C637   1.346       .  A
C637        C638   1.383       .  A
C637        H640   1.082       .  S
C638        C639   1.383       .  A
C638       C3256   1.480       .  S
C639        H641   1.082       .  S
N642        N643   1.323       .  A
N642        C646   1.345       .  A
N643        C644   1.343       .  A
C644        C645   1.381       .  A
C644        H647   1.082       .  S
C645        C646   1.380       .  A
C645       C3246   1.471       .  S
C646        H648   1.082       .  S
N649        N650   1.321       .  A
N649        C653   1.347       .  A
N649       Cu657   2.076       .  S
N650        C651   1.342       .  A
N650       Cu656   2.066       .  S
C651        C652   1.382       .  A
C651        H654   1.082       .  S
C652        C653   1.386       .  A
C652       C3236   1.479       .  S
C653        H655   1.082       .  S
Cu656       N659   2.066       .  S
Cu657       N667   2.076       .  S
Cu658       N660   2.082       .  S
Cu658       N666   2.083       .  S
N659        N660   1.321       .  A
N659        C663   1.343       .  A
N660        C661   1.347       .  A
C661        C662   1.387       .  A
C661        H664   1.082       .  S
C662        C663   1.383       .  A
C662       C3229   1.485       .  S
C663        H665   1.082       .  S
N666        N667   1.324       .  A
N666        C670   1.346       .  A
N667        C668   1.345       .  A
C668        C669   1.382       .  A
C668        H671   1.082       .  S
C669        C670   1.384       .  A
C669       C3216   1.480       .  S
C670        H672   1.082       .  S
N673        N674   1.321       .  A
N673        C677   1.346       .  A
N673       Cu681   2.068       .  S
N674        C675   1.343       .  A
N674       Cu680   2.071       .  S
C675        C676   1.383       .  A
C675        H678   1.082       .  S
C676        C677   1.383       .  A
C676       C3239   1.478       .  S
C677        H679   1.082       .  S
Cu680       N683   2.071       .  S
Cu681       N691   2.068       .  S
Cu682       N684   2.081       .  S
Cu682       N690   2.082       .  S
N683        N684   1.322       .  A
N683        C687   1.343       .  A
N684        C685   1.347       .  A
C685        C686   1.387       .  A
C685        H688   1.082       .  S
C686        C687   1.383       .  A
C686       C3299   1.484       .  S
C687        H689   1.082       .  S
N690        N691   1.324       .  A
N690        C694   1.346       .  A
N691        C692   1.344       .  A
C692        C693   1.380       .  A
C692        H695   1.082       .  S
C693        C694   1.383       .  A
C693       C3209   1.475       .  S
C694        H696   1.082       .  S
N697        N698   1.322       .  A
N697        C701   1.347       .  A
N697       Cu705   2.084       .  S
N698        C699   1.344       .  A
N698       Cu704   2.066       .  S
C699        C700   1.382       .  A
C699        H702   1.082       .  S
C700        C701   1.387       .  A
C700       C3226   1.483       .  S
C701        H703   1.081       .  S
Cu704       N707   2.066       .  S
Cu705       N715   2.085       .  S
Cu706       N708   2.088       .  S
Cu706       N714   2.089       .  S
N707        N708   1.322       .  A
N707        C711   1.343       .  A
N708        C709   1.349       .  A
C709        C710   1.387       .  A
C709        H712   1.082       .  S
C710        C711   1.381       .  A
C710       C3259   1.481       .  S
C711        H713   1.082       .  S
N714        N715   1.324       .  A
N714        C718   1.347       .  A
N715        C716   1.347       .  A
C716        C717   1.384       .  A
C716        H719   1.082       .  S
C717        C718   1.385       .  A
C717       C3309   1.484       .  S
C718        H720   1.082       .  S
N721        N722   1.321       .  A
N721        C725   1.344       .  A
N721       Cu729   2.064       .  S
N722        C723   1.344       .  A
N722       Cu728   2.071       .  S
C723        C724   1.384       .  A
C723        H726   1.082       .  S
C724        C725   1.383       .  A
C724       C3196   1.478       .  S
C725        H727   1.082       .  S
Cu728       N731   2.071       .  S
Cu729       N739   2.065       .  S
Cu730       N732   2.070       .  S
Cu730       N738   2.071       .  S
N731        N732   1.322       .  A
N731        C735   1.342       .  A
N732        C733   1.346       .  A
C733        C734   1.384       .  A
C733        H736   1.082       .  S
C734        C735   1.383       .  A
C734       C3186   1.480       .  S
C735        H737   1.082       .  S
N738        N739   1.322       .  A
N738        C742   1.344       .  A
N739        C740   1.344       .  A
C740        C741   1.381       .  A
C740        H743   1.082       .  S
C741        C742   1.382       .  A
C741       C3249   1.473       .  S
C742        H744   1.082       .  S
N745        N746   1.322       .  A
N745        C749   1.348       .  A
N745       Cu753   2.080       .  S
N746        C747   1.341       .  A
N746       Cu752   2.064       .  S
C747        C748   1.382       .  A
C747        H750   1.082       .  S
C748        C749   1.387       .  A
C748       C3176   1.484       .  S
C749        H751   1.082       .  S
Cu752       N755   2.063       .  S
Cu753       N763   2.081       .  S
Cu754       N756   2.070       .  S
Cu754       N762   2.071       .  S
N755        N756   1.320       .  A
N755        C759   1.343       .  A
N756        C757   1.345       .  A
C757        C758   1.386       .  A
C757        H760   1.082       .  S
C758        C759   1.384       .  A
C758       C3189   1.482       .  S
C759        H761   1.082       .  S
N762        N763   1.324       .  A
N762        C766   1.344       .  A
N763        C764   1.346       .  A
C764        C765   1.383       .  A
C764        H767   1.082       .  S
C765        C766   1.380       .  A
C765       C3166   1.475       .  S
C766        H768   1.082       .  S
N769        N770   1.321       .  A
N769        C773   1.346       .  A
N769       Cu777   2.074       .  S
N770        C771   1.345       .  A
N770       Cu776   2.071       .  S
C771        C772   1.384       .  A
C771        H774   1.082       .  S
C772        C773   1.385       .  A
C772       C3179   1.483       .  S
C773        H775   1.081       .  S
Cu776       N779   2.071       .  S
Cu777       N787   2.074       .  S
Cu778       N780   2.085       .  S
Cu778       N786   2.085       .  S
N779        N780   1.323       .  A
N779        C783   1.343       .  A
N780        C781   1.348       .  A
C781        C782   1.386       .  A
C781        H784   1.082       .  S
C782        C783   1.382       .  A
C782       C3156   1.483       .  S
C783        H785   1.082       .  S
N786        N787   1.324       .  A
N786        C790   1.347       .  A
N787        C788   1.345       .  A
C788        C789   1.380       .  A
C788        H791   1.082       .  S
C789        C790   1.384       .  A
C789       C3579   1.477       .  S
C790        H792   1.082       .  S
N793        N794   1.322       .  A
N793        C797   1.347       .  A
N793       Cu801   2.081       .  S
N794        C795   1.343       .  A
N794       Cu800   2.066       .  S
C795        C796   1.383       .  A
C795        H798   1.081       .  S
C796        C797   1.387       .  A
C796       C3159   1.485       .  S
C797        H799   1.082       .  S
Cu800       N803   2.066       .  S
Cu801       N811   2.082       .  S
Cu802       N804   2.081       .  S
Cu802       N810   2.081       .  S
N803        N804   1.322       .  A
N803        C807   1.344       .  A
N804        C805   1.346       .  A
C805        C806   1.386       .  A
C805        H808   1.082       .  S
C806        C807   1.383       .  A
C806       C3146   1.483       .  S
C807        H809   1.081       .  S
N810        N811   1.323       .  A
N810        C814   1.347       .  A
N811        C812   1.346       .  A
C812        C813   1.383       .  A
C812        H815   1.082       .  S
C813        C814   1.383       .  A
C813       C3136   1.480       .  S
C814        H816   1.082       .  S
N817        N818   1.323       .  A
N817        C821   1.347       .  A
N817       Cu825   2.086       .  S
N818        C819   1.344       .  A
N818       Cu824   2.073       .  S
C819        C820   1.382       .  A
C819        H822   1.082       .  S
C820        C821   1.386       .  A
C820       C3126   1.483       .  S
C821        H823   1.082       .  S
Cu824       N827   2.073       .  S
Cu825       N835   2.086       .  S
Cu826       N828   2.073       .  S
Cu826       N834   2.074       .  S
N827        N828   1.321       .  A
N827        C831   1.344       .  A
N828        C829   1.346       .  A
C829        C830   1.385       .  A
C829        H832   1.082       .  S
C830        C831   1.384       .  A
C830       C3149   1.482       .  S
C831        H833   1.082       .  S
N834        N835   1.324       .  A
N834        C838   1.344       .  A
N835        C836   1.348       .  A
C836        C837   1.385       .  A
C836        H839   1.082       .  S
C837        C838   1.381       .  A
C837       C3119   1.479       .  S
C838        H840   1.082       .  S
N841        N842   1.321       .  A
N841        C845   1.348       .  A
N841       Cu849   2.081       .  S
N842        C843   1.343       .  A
N842       Cu848   2.069       .  S
C843        C844   1.384       .  A
C843        H846   1.082       .  S
C844        C845   1.388       .  A
C844       C3129   1.487       .  S
C845        H847   1.081       .  S
Cu848       N851   2.069       .  S
Cu849       N859   2.081       .  S
Cu850       N852   2.081       .  S
Cu850       N858   2.083       .  S
N851        N852   1.322       .  A
N851        C855   1.343       .  A
N852        C853   1.347       .  A
C853        C854   1.387       .  A
C853        H856   1.082       .  S
C854        C855   1.383       .  A
C854       C3199   1.484       .  S
C855        H857   1.082       .  S
N858        N859   1.324       .  A
N858        C862   1.347       .  A
N859        C860   1.346       .  A
C860        C861   1.383       .  A
C860        H863   1.082       .  S
C861        C862   1.385       .  A
C861       C3106   1.483       .  S
C862        H864   1.082       .  S
N865        N866   1.321       .  A
N865        C869   1.347       .  A
N865       Cu873   2.075       .  S
N866        C867   1.345       .  A
N866       Cu872   2.076       .  S
C867        C868   1.386       .  A
C867        H870   1.082       .  S
C868        C869   1.386       .  A
C868       C3086   1.485       .  S
C869        H871   1.082       .  S
Cu872       N875   2.077       .  S
Cu873       N883   2.075       .  S
Cu874       N876   2.091       .  S
Cu874       N882   2.092       .  S
N875        N876   1.323       .  A
N875        C879   1.345       .  A
N876        C877   1.348       .  A
C877        C878   1.387       .  A
C877        H880   1.082       .  S
C878        C879   1.383       .  A
C878       C3096   1.486       .  S
C879        H881   1.082       .  S
N882        N883   1.324       .  A
N882        C886   1.349       .  A
N883        C884   1.344       .  A
C884        C885   1.381       .  A
C884        H887   1.082       .  S
C885        C886   1.386       .  A
C885       C3449   1.481       .  S
C886        H888   1.082       .  S
N889        N890   1.321       .  A
N889        C893   1.350       .  A
N889       Cu897   2.090       .  S
N890        C891   1.342       .  A
N890       Cu896   2.060       .  S
C891        C892   1.381       .  A
C891        H894   1.082       .  S
C892        C893   1.390       .  A
C892       C3079   1.486       .  S
C893        H895   1.082       .  S
Cu896       N899   2.060       .  S
Cu897       N907   2.091       .  S
Cu898       N900   2.090       .  S
Cu898       N906   2.091       .  S
N899        N900   1.321       .  A
N899        C903   1.342       .  A
N900        C901   1.349       .  A
C901        C902   1.390       .  A
C901        H904   1.082       .  S
C902        C903   1.381       .  A
C902       C3089   1.485       .  S
C903        H905   1.082       .  S
N906        N907   1.326       .  A
N906        C910   1.348       .  A
N907        C908   1.347       .  A
C908        C909   1.384       .  A
C908        H911   1.082       .  S
C909        C910   1.384       .  A
C909       C3066   1.484       .  S
C910        H912   1.082       .  S
N913        N914   1.322       .  A
N913        C917   1.346       .  A
N913       Cu921   2.077       .  S
N914        C915   1.346   1_554  A
N914       Cu920   2.082       .  S
C915        C916   1.387       .  A
C915        H918   1.082       .  S
C916        C917   1.386   1_556  A
C916       C3076   1.488       .  S
C917        H919   1.082       .  S
Cu920       N923   2.082       .  S
Cu921       N931   2.078       .  S
Cu922       N924   2.082       .  S
Cu922       N930   2.082       .  S
N923        N924   1.323       .  A
N923        C927   1.346       .  A
N924        C925   1.347       .  A
C925        C926   1.385       .  A
C925        H928   1.082       .  S
C926        C927   1.385       .  A
C926       C3056   1.486       .  S
C927        H929   1.082       .  S
N930        N931   1.323       .  A
N930        C934   1.347       .  A
N931        C932   1.346       .  A
C932        C933   1.382       .  A
C932        H935   1.082       .  S
C933        C934   1.384       .  A
C933       C3049   1.479       .  S
C934        H936   1.082       .  S
N937        N938   1.322       .  A
N937        C941   1.346       .  A
N937       Cu945   2.078       .  S
N938        C939   1.346       .  A
N938       Cu944   2.080       .  S
C939        C940   1.387       .  A
C939        H942   1.082       .  S
C940        C941   1.386       .  A
C940       C3036   1.489       .  S
C941        H943   1.082       .  S
Cu944       N947   2.079       .  S
Cu945       N955   2.078       .  S
Cu946       N948   2.084       .  S
Cu946       N954   2.084       .  S
N947        N948   1.322       .  A
N947        C951   1.344       .  A
N948        C949   1.348       .  A
C949        C950   1.387       .  A
C949        H952   1.082       .  S
C950        C951   1.386       .  A
C950       C3059   1.489       .  S
C951        H953   1.082       .  S
N954        N955   1.323       .  A
N954        C958   1.347       .  A
N955        C956   1.346       .  A
C956        C957   1.382       .  A
C956        H959   1.082       .  S
C957        C958   1.384       .  A
C957       C3026   1.479       .  S
C958        H960   1.082       .  S
N961        N962   1.322       .  A
N961        C965   1.348       .  A
N961       Cu969   2.086       .  S
N962        C963   1.345       .  A
N962       Cu968   2.074       .  S
C963        C964   1.384       .  A
C963        H966   1.082       .  S
C964        C965   1.387       .  A
C964       C3039   1.486       .  S
C965        H967   1.082       .  S
Cu968       N971   2.074       .  S
Cu969       N979   2.086       .  S
Cu970       N972   2.071       .  S
Cu970       N978   2.072       .  S
N971        N972   1.322       .  A
N971        C975   1.344       .  A
N972        C973   1.346       .  A
C973        C974   1.384   1_554  A
C973        H976   1.082       .  S
C974        C975   1.383   1_556  A
C974       C3016   1.480       .  S
C975        H977   1.082   1_554  S
N978        N979   1.324       .  A
N978        C982   1.345       .  A
N979        C980   1.346       .  A
C980        C981   1.385       .  A
C980        H983   1.082       .  S
C981        C982   1.382       .  A
C981       C3369   1.481       .  S
C982        H984   1.082       .  S
N985        N986   1.321       .  A
N985        C989   1.347       .  A
N985       Cu993   2.075       .  S
N986        C987   1.343       .  A
N986       Cu992   2.073       .  S
C987        C988   1.385       .  A
C987        H990   1.082       .  S
C988        C989   1.387       .  A
C988       C3019   1.487       .  S
C989        H991   1.081       .  S
Cu992       N995   2.073       .  S
Cu993      N1003   2.076       .  S
Cu994       N996   2.083       .  S
Cu994      N1002   2.083       .  S
N995        N996   1.322       .  A
N995        C999   1.344       .  A
N996        C997   1.348       .  A
C997        C998   1.387       .  A
C997       H1000   1.082       .  S
C998        C999   1.383       .  A
C998       C3099   1.485       .  S
C999       H1001   1.082       .  S
N1002      N1003   1.324       .  A
N1002      C1006   1.347       .  A
N1003      C1004   1.344       .  A
C1004      C1005   1.382       .  A
C1004      H1007   1.082       .  S
C1005      C1006   1.384       .  A
C1005      C3169   1.480       .  S
C1006      H1008   1.082       .  S
N1009      N1010   1.322       .  A
N1009      C1013   1.346       .  A
N1009     Cu1017   2.075       .  S
N1010      C1011   1.344       .  A
N1010     Cu1016   2.073       .  S
C1011      C1012   1.385       .  A
C1011      H1014   1.082       .  S
C1012      C1013   1.386       .  A
C1012      C2996   1.485       .  S
C1013      H1015   1.082       .  S
Cu1016     N1019   2.074       .  S
Cu1017     N1027   2.076       .  S
Cu1018     N1020   2.079       .  S
Cu1018     N1026   2.080       .  S
N1019      N1020   1.322       .  A
N1019      C1023   1.344       .  A
N1020      C1021   1.347       .  A
C1021      C1022   1.385       .  A
C1021      H1024   1.082       .  S
C1022      C1023   1.383       .  A
C1022      C3006   1.481       .  S
C1023      H1025   1.082       .  S
N1026      N1027   1.323       .  A
N1026      C1030   1.346       .  A
N1027      C1028   1.345       .  A
C1028      C1029   1.382       .  A
C1028      H1031   1.082       .  S
C1029      C1030   1.383       .  A
C1029      C3539   1.479       .  S
C1030      H1032   1.082       .  S
N1033      N1034   1.322       .  A
N1033      C1037   1.347       .  A
N1033     Cu1041   2.080       .  S
N1034      C1035   1.344       .  A
N1034     Cu1040   2.070       .  S
C1035      C1036   1.384       .  A
C1035      H1038   1.082       .  S
C1036      C1037   1.387       .  A
C1036      C2986   1.485       .  S
C1037      H1039   1.082       .  S
Cu1040     N1043   2.070       .  S
Cu1041     N1051   2.081       .  S
Cu1042     N1044   2.078       .  S
Cu1042     N1050   2.078       .  S
N1043      N1044   1.322       .  A
N1043      C1047   1.344       .  A
N1044      C1045   1.347       .  A
C1045      C1046   1.385       .  A
C1045      H1048   1.082       .  S
C1046      C1047   1.382       .  A
C1046      C3009   1.479       .  S
C1047      H1049   1.082       .  S
N1050      N1051   1.323       .  A
N1050      C1054   1.346       .  A
N1051      C1052   1.346       .  A
C1052      C1053   1.384       .  A
C1052      H1055   1.082       .  S
C1053      C1054   1.383       .  A
C1053      C2976   1.480       .  S
C1054      H1056   1.082       .  S
N1057      N1058   1.322       .  A
N1057      C1061   1.348       .  A
N1057     Cu1065   2.086       .  S
N1058      C1059   1.343       .  A
N1058     Cu1064   2.068       .  S
C1059      C1060   1.381       .  A
C1059      H1062   1.082       .  S
C1060      C1061   1.387       .  A
C1060      C2989   1.482       .  S
C1061      H1063   1.082       .  S
Cu1064     N1067   2.068       .  S
Cu1065     N1075   2.087       .  S
Cu1066     N1068   2.076       .  S
Cu1066     N1074   2.077       .  S
N1067      N1068   1.321       .  A
N1067      C1071   1.344       .  A
N1068      C1069   1.346       .  A
C1069      C1070   1.387       .  A
C1069      H1072   1.081       .  S
C1070      C1071   1.384       .  A
C1070      C2966   1.485       .  S
C1071      H1073   1.082       .  S
N1074      N1075   1.324       .  A
N1074      C1078   1.345       .  A
N1075      C1076   1.347       .  A
C1076      C1077   1.386       .  A
C1076      H1079   1.082       .  S
C1077      C1078   1.383       .  A
C1077      C3116   1.484       .  S
C1078      H1080   1.082       .  S
N1081      N1082   1.321       .  A
N1081      C1085   1.346       .  A
N1081     Cu1089   2.071       .  S
N1082      C1083   1.344       .  A
N1082     Cu1088   2.074       .  S
C1083      C1084   1.386       .  A
C1083      H1086   1.082       .  S
C1084      C1085   1.387       .  A
C1084      C2956   1.487       .  S
C1085      H1087   1.082       .  S
Cu1088     N1091   2.073       .  S
Cu1089     N1099   2.072       .  S
Cu1090     N1092   2.082       .  S
Cu1090     N1098   2.083       .  S
N1091      N1092   1.322       .  A
N1091      C1095   1.343       .  A
N1092      C1093   1.348       .  A
C1093      C1094   1.388       .  A
C1093      H1096   1.082       .  S
C1094      C1095   1.385       .  A
C1094      C2949   1.488       .  S
C1095      H1097   1.082       .  S
N1098      N1099   1.323       .  A
N1098      C1102   1.346       .  A
N1099      C1100   1.344       .  A
C1100      C1101   1.383       .  A
C1100      H1103   1.082       .  S
C1101      C1102   1.386       .  A
C1101      C3219   1.484       .  S
C1102      H1104   1.082       .  S
N1105      N1106   1.321       .  A
N1105      C1109   1.345       .  A
N1105     Cu1113   2.074       .  S
N1106      C1107   1.344       .  A
N1106     Cu1112   2.073       .  S
C1107      C1108   1.385       .  A
C1107      H1110   1.082       .  S
C1108      C1109   1.386       .  A
C1108      C2999   1.486       .  S
C1109      H1111   1.082       .  S
Cu1112     N1115   2.073       .  S
Cu1113     N1123   2.075       .  S
Cu1114     N1116   2.084       .  S
Cu1114     N1122   2.084       .  S
N1115      N1116   1.322       .  A
N1115      C1119   1.345       .  A
N1116      C1117   1.347       .  A
C1117      C1118   1.386       .  A
C1117      H1120   1.082       .  S
C1118      C1119   1.384       .  A
C1118      C2946   1.485       .  S
C1119      H1121   1.082       .  S
N1122      N1123   1.324       .  A
N1122      C1126   1.347       .  A
N1123      C1124   1.345       .  A
C1124      C1125   1.381       .  A
C1124      H1127   1.082       .  S
C1125      C1126   1.383       .  A
C1125      C2936   1.476       .  S
C1126      H1128   1.082       .  S
N1129      N1130   1.321       .  A
N1129      C1133   1.345       .  A
N1129     Cu1137   2.077       .  S
N1130      C1131   1.344       .  A
N1130     Cu1136   2.066       .  S
C1131      C1132   1.384       .  A
C1131      H1134   1.082       .  S
C1132      C1133   1.386       .  A
C1132      C2959   1.484       .  S
C1133      H1135   1.082       .  S
Cu1136     N1139   2.066       .  S
Cu1137     N1147   2.078       .  S
Cu1138     N1140   2.088       .  S
Cu1138     N1146   2.088       .  S
N1139      N1140   1.322       .  A
N1139      C1143   1.343       .  A
N1140      C1141   1.348       .  A
C1141      C1142   1.388       .  A
C1141      H1144   1.082       .  S
C1142      C1143   1.382       .  A
C1142      C2969   1.483       .  S
C1143      H1145   1.082       .  S
N1146      N1147   1.324       .  A
N1146      C1150   1.348       .  A
N1147      C1148   1.345       .  A
C1148      C1149   1.381       .  A
C1148      H1151   1.082       .  S
C1149      C1150   1.385       .  A
C1149      C2926   1.480       .  S
C1150      H1152   1.082       .  S
N1153      N1154   1.321       .  A
N1153      C1157   1.346       .  A
N1153     Cu1161   2.070       .  S
N1154      C1155   1.342       .  A
N1154     Cu1160   2.066       .  S
C1155      C1156   1.384       .  A
C1155      H1158   1.082       .  S
C1156      C1157   1.386       .  A
C1156      C2916   1.483       .  S
C1157      H1159   1.082       .  S
Cu1160     N1163   2.066       .  S
Cu1161     N1171   2.071       .  S
Cu1162     N1164   2.079       .  S
Cu1162     N1170   2.080       .  S
N1163      N1164   1.322       .  A
N1163      C1167   1.343       .  A
N1164      C1165   1.346       .  A
C1165      C1166   1.386       .  A
C1165      H1168   1.082       .  S
C1166      C1167   1.382       .  A
C1166      C2906   1.481       .  S
C1167      H1169   1.081       .  S
N1170      N1171   1.324       .  A
N1170      C1174   1.346       .  A
N1171      C1172   1.344       .  A
C1172      C1173   1.380       .  A
C1172      H1175   1.082       .  S
C1173      C1174   1.382       .  A
C1173      C2896   1.474       .  S
C1174      H1176   1.082       .  S
N1177      N1178   1.322       .  A
N1177      C1181   1.346       .  A
N1177     Cu1185   2.082       .  S
N1178      C1179   1.344       .  A
N1178     Cu1184   2.067       .  S
C1179      C1180   1.383       .  A
C1179      H1182   1.082       .  S
C1180      C1181   1.386       .  A
C1180      C2876   1.482       .  S
C1181      H1183   1.082       .  S
Cu1184     N1187   2.067       .  S
Cu1185     N1195   2.082       .  S
Cu1186     N1188   2.070       .  S
Cu1186     N1194   2.071       .  S
N1187      N1188   1.322       .  A
N1187      C1191   1.343       .  A
N1188      C1189   1.345       .  A
C1189      C1190   1.383       .  A
C1189      H1192   1.082       .  S
C1190      C1191   1.382       .  A
C1190      C2886   1.477       .  S
C1191      H1193   1.082       .  S
N1194      N1195   1.323       .  A
N1194      C1198   1.345       .  A
N1195      C1196   1.347       .  A
C1196      C1197   1.384       .  A
C1196      H1199   1.082       .  S
C1197      C1198   1.381       .  A
C1197      C2979   1.478       .  S
C1198      H1200   1.082       .  S
N1201      N1202   1.323       .  A
N1201      C1205   1.346       .  A
N1201     Cu1209   2.071       .  S
N1202      C1203   1.343       .  A
N1202     Cu1208   2.070       .  S
C1203      C1204   1.381       .  A
C1203      H1206   1.082       .  S
C1204      C1205   1.382       .  A
C1204      C2889   1.474       .  S
C1205      H1207   1.082       .  S
Cu1208     N1211   2.070       .  S
Cu1209     N1219   2.071       .  S
Cu1210     N1212   2.062       .  S
Cu1210     N1218   2.063       .  S
N1211      N1212   1.321       .  A
N1211      C1215   1.344       .  A
N1212      C1213   1.343       .  A
C1213      C1214   1.382       .  A
C1213      H1216   1.082       .  S
C1214      C1215   1.384       .  A
C1214      C2866   1.478       .  S
C1215      H1217   1.082       .  S
N1218      N1219   1.322       .  A
N1218      C1222   1.342       .  A
N1219      C1220   1.345       .  A
C1220      C1221   1.382       .  A
C1220      H1223   1.082       .  S
C1221      C1222   1.380       .  A
C1221      C3636   1.473       .  S
C1222      H1224   1.082       .  S
N1225      N1226   1.320       .  A
N1225      C1229   1.346       .  A
N1225     Cu1233   2.075       .  S
N1226      C1227   1.342       .  A
N1226     Cu1232   2.059       .  S
C1227      C1228   1.383       .  A
C1227      H1230   1.082       .  S
C1228      C1229   1.387       .  A
C1228      C2909   1.482       .  S
C1229      H1231   1.081       .  S
Cu1232     N1235   2.059       .  S
Cu1233     N1243   2.076       .  S
Cu1234     N1236   2.068       .  S
Cu1234     N1242   2.070       .  S
N1235      N1236   1.321       .  A
N1235      C1239   1.340       .  A
N1236      C1237   1.346       .  A
C1237      C1238   1.385       .  A
C1237      H1240   1.082       .  S
C1238      C1239   1.380       .  A
C1238      C2869   1.477       .  S
C1239      H1241   1.082       .  S
N1242      N1243   1.323       .  A
N1242      C1246   1.344       .  A
N1243      C1244   1.344       .  A
C1244      C1245   1.384       .  A
C1244      H1247   1.082       .  S
C1245      C1246   1.383       .  A
C1245      C2856   1.481       .  S
C1246      H1248   1.082       .  S
N1249      N1250   1.322       .  A
N1249      C1253   1.345       .  A
N1249     Cu1257   2.073       .  S
N1250      C1251   1.343       .  A
N1250     Cu1256   2.064       .  S
C1251      C1252   1.382       .  A
C1251      H1254   1.082       .  S
C1252      C1253   1.384       .  A
C1252      C2846   1.478       .  S
C1253      H1255   1.082       .  S
Cu1256     N1259   2.064       .  S
Cu1257     N1267   2.074       .  S
Cu1258     N1260   2.076       .  S
Cu1258     N1266   2.076       .  S
N1259      N1260   1.321       .  A
N1259      C1263   1.343       .  A
N1260      C1261   1.345       .  A
C1261      C1262   1.385       .  A
C1261      H1264   1.082       .  S
C1262      C1263   1.383       .  A
C1262      C2879   1.481       .  S
C1263      H1265   1.082       .  S
N1266      N1267   1.323       .  A
N1266      C1270   1.345       .  A
N1267      C1268   1.345       .  A
C1268      C1269   1.383       .  A
C1268      H1271   1.082       .  S
C1269      C1270   1.382       .  A
C1269      C2836   1.478       .  S
C1270      H1272   1.082       .  S
N1273      N1274   1.321       .  A
N1273      C1277   1.346       .  A
N1273     Cu1281   2.070       .  S
N1274      C1275   1.341       .  A
N1274     Cu1280   2.061       .  S
C1275      C1276   1.381       .  A
C1275      H1278   1.082       .  S
C1276      C1277   1.384       .  A
C1276      C2849   1.476       .  S
C1277      H1279   1.082       .  S
Cu1280     N1283   2.062       .  S
Cu1281     N1291   2.071       .  S
Cu1282     N1284   2.068       .  S
Cu1282     N1290   2.069       .  S
N1283      N1284   1.321       .  A
N1283      C1287   1.343       .  A
N1284      C1285   1.345       .  A
C1285      C1286   1.383       .  A
C1285      H1288   1.082       .  S
C1286      C1287   1.380       .  A
C1286      C2919   1.473       .  S
C1287      H1289   1.082       .  S
N1290      N1291   1.324       .  A
N1290      C1294   1.344       .  A
N1291      C1292   1.344       .  A
C1292      C1293   1.380       .  A
C1292      H1295   1.082       .  S
C1293      C1294   1.379       .  A
C1293      C2826   1.471       .  S
C1294      H1296   1.082       .  S
N1297      N1298   1.321       .  A
N1297      C1301   1.346       .  A
N1297     Cu1305   2.073       .  S
N1298      C1299   1.343       .  A
N1298     Cu1304   2.071       .  S
C1299      C1300   1.384       .  A
C1299      H1302   1.082       .  S
C1300      C1301   1.386       .  A
C1300      C2819   1.484       .  S
C1301      H1303   1.082       .  S
Cu1304     N1307   2.072       .  S
Cu1305     N1315   2.075       .  S
Cu1306     N1308   2.085       .  S
Cu1306     N1314   2.085       .  S
N1307      N1308   1.321       .  A
N1307      C1311   1.344       .  A
N1308      C1309   1.348       .  A
C1309      C1310   1.388       .  A
C1309      H1312   1.082       .  S
C1310      C1311   1.385       .  A
C1310      C2806   1.489       .  S
C1311      H1313   1.082       .  S
N1314      N1315   1.324       .  A
N1314      C1318   1.347       .  A
N1315      C1316   1.345       .  A
C1316      C1317   1.381       .  A
C1316      H1319   1.082       .  S
C1317      C1318   1.384       .  A
C1317      C2939   1.478       .  S
C1318      H1320   1.082       .  S
N1321      N1322   1.321       .  A
N1321      C1325   1.346       .  A
N1321     Cu1329   2.074       .  S
N1322      C1323   1.343       .  A
N1322     Cu1328   2.065       .  S
C1323      C1324   1.383       .  A
C1323      H1326   1.082       .  S
C1324      C1325   1.386       .  A
C1324      C2786   1.483       .  S
C1325      H1327   1.082       .  S
Cu1328     N1331   2.066       .  S
Cu1329     N1339   2.074       .  S
Cu1330     N1332   2.072       .  S
Cu1330     N1338   2.072       .  S
N1331      N1332   1.320       .  A
N1331      C1335   1.341       .  A
N1332      C1333   1.348       .  A
C1333      C1334   1.387       .  A
C1333      H1336   1.082       .  S
C1334      C1335   1.383       .  A
C1334      C2796   1.483       .  S
C1335      H1337   1.082       .  S
N1338      N1339   1.325       .  A
N1338      C1342   1.343       .  A
N1339      C1340   1.345       .  A
C1340      C1341   1.380       .  A
C1340      H1343   1.082       .  S
C1341      C1342   1.379       .  A
C1341      C2829   1.469       .  S
C1342      H1344   1.082       .  S
N1345      N1346   1.322       .  A
N1345      C1349   1.349       .  A
N1345     Cu1353   2.092       .  S
N1346      C1347   1.343       .  A
N1346     Cu1352   2.067       .  S
C1347      C1348   1.383       .  A
C1347      H1350   1.082       .  S
C1348      C1349   1.390       .  A
C1348      C2809   1.488       .  S
C1349      H1351   1.082       .  S
Cu1352     N1355   2.067       .  S
Cu1353     N1363   2.093       .  S
Cu1354     N1356   2.079       .  S
Cu1354     N1362   2.081       .  S
N1355      N1356   1.320       .  A
N1355      C1359   1.343       .  A
N1356      C1357   1.347       .  A
C1357      C1358   1.389       .  A
C1357      H1360   1.082       .  S
C1358      C1359   1.385       .  A
C1358      C2799   1.488       .  S
C1359      H1361   1.082       .  S
N1362      N1363   1.324       .  A
N1362      C1366   1.345       .  A
N1363      C1364   1.348       .  A
C1364      C1365   1.387       .  A
C1364      H1367   1.082       .  S
C1365      C1366   1.384       .  A
C1365      C3329   1.488       .  S
C1366      H1368   1.082       .  S
N1369      N1370   1.322       .  A
N1369      C1373   1.346       .  A
N1369     Cu1377   2.081       .  S
N1370      C1371   1.344       .  A
N1370     Cu1376   2.066       .  S
C1371      C1372   1.383       .  A
C1371      H1374   1.082       .  S
C1372      C1373   1.386       .  A
C1372      C2776   1.482       .  S
C1373      H1375   1.082       .  S
Cu1376     N1379   2.066       .  S
Cu1377     N1387   2.081       .  S
Cu1378     N1380   2.082       .  S
Cu1378     N1386   2.082       .  S
N1379      N1380   1.322       .  A
N1379      C1383   1.343       .  A
N1380      C1381   1.347       .  A
C1381      C1382   1.386       .  A
C1381      H1384   1.082       .  S
C1382      C1383   1.382       .  A
C1382      C2789   1.482       .  S
C1383      H1385   1.082       .  S
N1386      N1387   1.324       .  A
N1386      C1390   1.346       .  A
N1387      C1388   1.346       .  A
C1388      C1389   1.383       .  A
C1388      H1391   1.082       .  S
C1389      C1390   1.383       .  A
C1389      C3046   1.480       .  S
C1390      H1392   1.082       .  S
N1393      N1394   1.321       .  A
N1393      C1397   1.343       .  A
N1393     Cu1401   2.060       .  S
N1394      C1395   1.345       .  A
N1394     Cu1400   2.078       .  S
C1395      C1396   1.386       .  A
C1395      H1398   1.082       .  S
C1396      C1397   1.382       .  A
C1396      C2816   1.481       .  S
C1397      H1399   1.082       .  S
Cu1400     N1403   2.078       .  S
Cu1401     N1411   2.061       .  S
Cu1402     N1404   2.076       .  S
Cu1402     N1410   2.076       .  S
N1403      N1404   1.323       .  A
N1403      C1407   1.344       .  A
N1404      C1405   1.346       .  A
C1405      C1406   1.385       .  A
C1405      H1408   1.082       .  S
C1406      C1407   1.385       .  A
C1406      C2766   1.484       .  S
C1407      H1409   1.082       .  S
N1410      N1411   1.323       .  A
N1410      C1414   1.345       .  A
N1411      C1412   1.343       .  A
C1412      C1413   1.378       .  A
C1412      H1415   1.082       .  S
C1413      C1414   1.382       .  A
C1413      C3419   1.470       .  S
C1414      H1416   1.082       .  S
N1417      N1418   1.322       .  A
N1417      C1421   1.347       .  A
N1417     Cu1425   2.079       .  S
N1418      C1419   1.344       .  A
N1418     Cu1424   2.069       .  S
C1419      C1420   1.382       .  A
C1419      H1422   1.082       .  S
C1420      C1421   1.384       .  A
C1420      C2779   1.479       .  S
C1421      H1423   1.082       .  S
Cu1424     N1427   2.069       .  S
Cu1425     N1435   2.080       .  S
Cu1426     N1428   2.078       .  S
Cu1426     N1434   2.079       .  S
N1427      N1428   1.322       .  A
N1427      C1431   1.344       .  A
N1428      C1429   1.346       .  A
C1429      C1430   1.385       .  A
C1429      H1432   1.082       .  S
C1430      C1431   1.383       .  A
C1430      C2769   1.482       .  S
C1431      H1433   1.082       .  S
N1434      N1435   1.323       .  A
N1434      C1438   1.346       .  A
N1435      C1436   1.346       .  A
C1436      C1437   1.384       .  A
C1436      H1439   1.082       .  S
C1437      C1438   1.384       .  A
C1437      C2756   1.482       .  S
C1438      H1440   1.082       .  S
N1441      N1442   1.321       .  A
N1441      C1445   1.345       .  A
N1441     Cu1449   2.070       .  S
N1442      C1443   1.343       .  A
N1442     Cu1448   2.067       .  S
C1443      C1444   1.383       .  A
C1443      H1446   1.082       .  S
C1444      C1445   1.384       .  A
C1444      C2736   1.480       .  S
C1445      H1447   1.082       .  S
Cu1448     N1451   2.067       .  S
Cu1449     N1459   2.071       .  S
Cu1450     N1452   2.077       .  S
Cu1450     N1458   2.078       .  S
N1451      N1452   1.322       .  A
N1451      C1455   1.343       .  A
N1452      C1453   1.347       .  A
C1453      C1454   1.385       .  A
C1453      H1456   1.082       .  S
C1454      C1455   1.381       .  A
C1454      C2746   1.478       .  S
C1455      H1457   1.082       .  S
N1458      N1459   1.324       .  A
N1458      C1462   1.346       .  A
N1459      C1460   1.345       .  A
C1460      C1461   1.381       .  A
C1460      H1463   1.082       .  S
C1461      C1462   1.382       .  A
C1461      C2726   1.476       .  S
C1462      H1464   1.082       .  S
N1465      N1466   1.321       .  A
N1465      C1469   1.347       .  A
N1465     Cu1473   2.088       .  S
N1466      C1467   1.343       .  A
N1466     Cu1472   2.058       .  S
C1467      C1468   1.381       .  A
C1467      H1470   1.082       .  S
C1468      C1469   1.388       .  A
C1468      C2709   1.483       .  S
C1469      H1471   1.082       .  S
Cu1472     N1475   2.058       .  S
Cu1473     N1483   2.089       .  S
Cu1474     N1476   2.073       .  S
Cu1474     N1482   2.074       .  S
N1475      N1476   1.320       .  A
N1475      C1479   1.340       .  A
N1476      C1477   1.347       .  A
C1477      C1478   1.387       .  A
C1477      H1480   1.081       .  S
C1478      C1479   1.381       .  A
C1478      C2716   1.480       .  S
C1479      H1481   1.082       .  S
N1482      N1483   1.324       .  A
N1482      C1486   1.344       .  A
N1483      C1484   1.348       .  A
C1484      C1485   1.385       .  A
C1484      H1487   1.082       .  S
C1485      C1486   1.381       .  A
C1485      C3029   1.480       .  S
C1486      H1488   1.082       .  S
N1489      N1490   1.321       .  A
N1489      C1493   1.348       .  A
N1489     Cu1497   2.087       .  S
N1490      C1491   1.342       .  A
N1490     Cu1496   2.053       .  S
C1491      C1492   1.380       .  A
C1491      H1494   1.082       .  S
C1492      C1493   1.389       .  A
C1492      C2696   1.480       .  S
C1493      H1495   1.082       .  S
Cu1496     N1499   2.052       .  S
Cu1497     N1507   2.089       .  S
Cu1498     N1500   2.079       .  S
Cu1498     N1506   2.080       .  S
N1499      N1500   1.321       .  A
N1499      C1503   1.340       .  A
N1500      C1501   1.347       .  A
C1501      C1502   1.387       .  A
C1501      H1504   1.082       .  S
C1502      C1503   1.379       .  A
C1502      C2686   1.478       .  S
C1503      H1505   1.082       .  S
N1506      N1507   1.325       .  A
N1506      C1510   1.346       .  A
N1507      C1508   1.347       .  A
C1508      C1509   1.384       .  A
C1508      H1511   1.082       .  S
C1509      C1510   1.382       .  A
C1509      C3139   1.480       .  S
C1510      H1512   1.082       .  S
N1513      N1514   1.322       .  A
N1513      C1517   1.348       .  A
N1513     Cu1521   2.080       .  S
N1514      C1515   1.342       .  A
N1514     Cu1520   2.067       .  S
C1515      C1516   1.382       .  A
C1515      H1518   1.082       .  S
C1516      C1517   1.386       .  A
C1516      C2706   1.482       .  S
C1517      H1519   1.082       .  S
Cu1520     N1523   2.067       .  S
Cu1521     N1531   2.081       .  S
Cu1522     N1524   2.074       .  S
Cu1522     N1530   2.074       .  S
N1523      N1524   1.321       .  A
N1523      C1527   1.344   1_554  A
N1524      C1525   1.346       .  A
C1525      C1526   1.385   1_554  A
C1525      H1528   1.082       .  S
C1526      C1527   1.383       .  A
C1526      C2699   1.481       .  S
C1527      H1529   1.082       .  S
N1530      N1531   1.323       .  A
N1530      C1534   1.345       .  A
N1531      C1532   1.345       .  A
C1532      C1533   1.384       .  A
C1532      H1535   1.082       .  S
C1533      C1534   1.383       .  A
C1533      C2679   1.482       .  S
C1534      H1536   1.082       .  S
N1537      N1538   1.321       .  A
N1537      C1541   1.345       .  A
N1537     Cu1545   2.077       .  S
N1538      C1539   1.344       .  A
N1538     Cu1544   2.068       .  S
C1539      C1540   1.385       .  A
C1539      H1542   1.082       .  S
C1540      C1541   1.387       .  A
C1540      C2749   1.486   1_554  S
C1541      H1543   1.082       .  S
Cu1544     N1547   2.069       .  S
Cu1545     N1555   2.078       .  S
Cu1546     N1548   2.075       .  S
Cu1546     N1554   2.076       .  S
N1547      N1548   1.322       .  A
N1547      C1551   1.342       .  A
N1548      C1549   1.347       .  A
C1549      C1550   1.384       .  A
C1549      H1552   1.082       .  S
C1550      C1551   1.381       .  A
C1550      C2719   1.476       .  S
C1551      H1553   1.082       .  S
N1554      N1555   1.323       .  A
N1554      C1558   1.345       .  A
N1555      C1556   1.346       .  A
C1556      C1557   1.384       .  A
C1556      H1559   1.082       .  S
C1557      C1558   1.384       .  A
C1557      C2666   1.481       .  S
C1558      H1560   1.082       .  S
N1561      N1562   1.320       .  A
N1561      C1565   1.345       .  A
N1561     Cu1569   2.070       .  S
N1562      C1563   1.342       .  A
N1562     Cu1568   2.063       .  S
C1563      C1564   1.383       .  A
C1563      H1566   1.082       .  S
C1564      C1565   1.386       .  A
C1564      C2739   1.481       .  S
C1565      H1567   1.081       .  S
Cu1568     N1571   2.063       .  S
Cu1569     N1579   2.071       .  S
Cu1570     N1572   2.074       .  S
Cu1570     N1578   2.074       .  S
N1571      N1572   1.322       .  A
N1571      C1575   1.343       .  A
N1572      C1573   1.345       .  A
C1573      C1574   1.384       .  A
C1573      H1576   1.082       .  S
C1574      C1575   1.380       .  A
C1574      C2689   1.475       .  S
C1575      H1577   1.082       .  S
N1578      N1579   1.323       .  A
N1578      C1582   1.345       .  A
N1579      C1580   1.344       .  A
C1580      C1581   1.379       .  A
C1580      H1583   1.082       .  S
C1581      C1582   1.381       .  A
C1581      C2656   1.472       .  S
C1582      H1584   1.082       .  S
N1585      N1586   1.322       .  A
N1585      C1589   1.347       .  A
N1585     Cu1593   2.084       .  S
N1586      C1587   1.344       .  A
N1586     Cu1592   2.068       .  S
C1587      C1588   1.383       .  A
C1587      H1590   1.082       .  S
C1588      C1589   1.388       .  A
C1588      C2649   1.486       .  S
C1589      H1591   1.082       .  S
Cu1592     N1595   2.068       .  S
Cu1593     N1603   2.085       .  S
Cu1594     N1596   2.082       .  S
Cu1594     N1602   2.082       .  S
N1595      N1596   1.321       .  A
N1595      C1599   1.344       .  A
N1596      C1597   1.347       .  A
C1597      C1598   1.387       .  A
C1597      H1600   1.082       .  S
C1598      C1599   1.383       .  A
C1598      C2636   1.485       .  S
C1599      H1601   1.082       .  S
N1602      N1603   1.324       .  A
N1602      C1606   1.346       .  A
N1603      C1604   1.346       .  A
C1604      C1605   1.384       .  A
C1604      H1607   1.082       .  S
C1605      C1606   1.384       .  A
C1605      C2759   1.484       .  S
C1606      H1608   1.082       .  S
N1609      N1610   1.321       .  A
N1609      C1613   1.345       .  A
N1609     Cu1617   2.066       .  S
N1610      C1611   1.343       .  A
N1610     Cu1616   2.071       .  S
C1611      C1612   1.383       .  A
C1611      H1614   1.082       .  S
C1612      C1613   1.383       .  A
C1612      C2626   1.478       .  S
C1613      H1615   1.082       .  S
Cu1616     N1619   2.071       .  S
Cu1617     N1627   2.066       .  S
Cu1618     N1620   2.087       .  S
Cu1618     N1626   2.087       .  S
N1619      N1620   1.322       .  A
N1619      C1623   1.345       .  A
N1620      C1621   1.346       .  A
C1621      C1622   1.387       .  A
C1621      H1624   1.082       .  S
C1622      C1623   1.384       .  A
C1622      C2639   1.487       .  S
C1623      H1625   1.082       .  S
N1626      N1627   1.323       .  A
N1626      C1630   1.348       .  A
N1627      C1628   1.344       .  A
C1628      C1629   1.379       .  A
C1628      H1631   1.082       .  S
C1629      C1630   1.384       .  A
C1629      C2616   1.475       .  S
C1630      H1632   1.082       .  S
N1633      N1634   1.320       .  A
N1633      C1637   1.347       .  A
N1633     Cu1641   2.079       .  S
N1634      C1635   1.341       .  A
N1634     Cu1640   2.059       .  S
C1635      C1636   1.382       .  A
C1635      H1638   1.081       .  S
C1636      C1637   1.388       .  A
C1636      C2606   1.484       .  S
C1637      H1639   1.082       .  S
Cu1640     N1643   2.059       .  S
Cu1641     N1651   2.080       .  S
Cu1642     N1644   2.082       .  S
Cu1642     N1650   2.084       .  S
N1643      N1644   1.320       .  A
N1643      C1647   1.341       .  A
N1644      C1645   1.348       .  A
C1645      C1646   1.390       .  A
C1645      H1648   1.082       .  S
C1646      C1647   1.383       .  A
C1646      C2646   1.488       .  S
C1647      H1649   1.082       .  S
N1650      N1651   1.325       .  A
N1650      C1654   1.346       .  A
N1651      C1652   1.345       .  A
C1652      C1653   1.383       .  A
C1652      H1655   1.082       .  S
C1653      C1654   1.383       .  A
C1653      C2676   1.481       .  S
C1654      H1656   1.082       .  S
N1657      N1658   1.322       .  A
N1657      C1661   1.348       .  A
N1657     Cu1665   2.087       .  S
N1658      C1659   1.342       .  A
N1658     Cu1664   2.064       .  S
C1659      C1660   1.381       .  A
C1659      H1662   1.082       .  S
C1660      C1661   1.387       .  A
C1660      C2609   1.481       .  S
C1661      H1663   1.082       .  S
Cu1664     N1667   2.065       .  S
Cu1665     N1675   2.088       .  S
Cu1666     N1668   2.071       .  S
Cu1666     N1674   2.072       .  S
N1667      N1668   1.321       .  A
N1667      C1671   1.343       .  A
N1668      C1669   1.346       .  A
C1669      C1670   1.384       .  A
C1669      H1672   1.082       .  S
C1670      C1671   1.382       .  A
C1670      C2596   1.478       .  S
C1671      H1673   1.082       .  S
N1674      N1675   1.324       .  A
N1674      C1678   1.344       .  A
N1675      C1676   1.348       .  A
C1676      C1677   1.384       .  A
C1676      H1679   1.082       .  S
C1677      C1678   1.380       .  A
C1677      C2929   1.477       .  S
C1678      H1680   1.082       .  S
N1681      N1682   1.321       .  A
N1681      C1685   1.346       .  A
N1681     Cu1689   2.073       .  S
N1682      C1683   1.341       .  A
N1682     Cu1688   2.062       .  S
C1683      C1684   1.382       .  A
C1683      H1686   1.082       .  S
C1684      C1685   1.387       .  A
C1684      C2629   1.481       .  S
C1685      H1687   1.082       .  S
Cu1688     N1691   2.062       .  S
Cu1689     N1699   2.075       .  S
Cu1690     N1692   2.074       .  S
Cu1690     N1698   2.075       .  S
N1691      N1692   1.321       .  A
N1691      C1695   1.342       .  A
N1692      C1693   1.347       .  A
C1693      C1694   1.385       .  A
C1693      H1696   1.082       .  S
C1694      C1695   1.382       .  A
C1694      C2586   1.478       .  S
C1695      H1697   1.082       .  S
N1698      N1699   1.324       .  A
N1698      C1702   1.344       .  A
N1699      C1700   1.345       .  A
C1700      C1701   1.380       .  A
C1700      H1703   1.082       .  S
C1701      C1702   1.379       .  A
C1701      C2859   1.471       .  S
C1702      H1704   1.082       .  S
N1705      N1706   1.322       .  A
N1705      C1709   1.346       .  A
N1705     Cu1713   2.079       .  S
N1706      C1707   1.344       .  A
N1706     Cu1712   2.068       .  S
C1707      C1708   1.384       .  A
C1707      H1710   1.082       .  S
C1708      C1709   1.386       .  A
C1708      C2589   1.483       .  S
C1709      H1711   1.082       .  S
Cu1712     N1715   2.069       .  S
Cu1713     N1723   2.079       .  S
Cu1714     N1716   2.073       .  S
Cu1714     N1722   2.073       .  S
N1715      N1716   1.322       .  A
N1715      C1719   1.344       .  A
N1716      C1717   1.345       .  A
C1717      C1718   1.383       .  A
C1717      H1720   1.082       .  S
C1718      C1719   1.382       .  A
C1718      C2599   1.477       .  S
C1719      H1721   1.082       .  S
N1722      N1723   1.323       .  A
N1722      C1726   1.344       .  A
N1723      C1724   1.346       .  A
C1724      C1725   1.384       .  A
C1724      H1727   1.082       .  S
C1725      C1726   1.382       .  A
C1725      C2579   1.479       .  S
C1726      H1728   1.082       .  S
N1729      N1730   1.321       .  A
N1729      C1733   1.347       .  A
N1729     Cu1737   2.075       .  S
N1730      C1731   1.344       .  A
N1730     Cu1736   2.074       .  S
C1731      C1732   1.384       .  A
C1731      H1734   1.082       .  S
C1732      C1733   1.386       .  A
C1732      C2556   1.483       .  S
C1733      H1735   1.082       .  S
Cu1736     N1739   2.074       .  S
Cu1737     N1747   2.076       .  S
Cu1738     N1740   2.083       .  S
Cu1738     N1746   2.084       .  S
N1739      N1740   1.321       .  A
N1739      C1743   1.343       .  A
N1740      C1741   1.348       .  A
C1741      C1742   1.388       .  A
C1741      H1744   1.082       .  S
C1742      C1743   1.385       .  A
C1742      C2566   1.488       .  S
C1743      H1745   1.082       .  S
N1746      N1747   1.324       .  A
N1746      C1750   1.346       .  A
N1747      C1748   1.345       .  A
C1748      C1749   1.381       .  A
C1748      H1751   1.082       .  S
C1749      C1750   1.383       .  A
C1749      C2546   1.478       .  S
C1750      H1752   1.082       .  S
N1753      N1754   1.322       .  A
N1753      C1757   1.348       .  A
N1753     Cu1761   2.089       .  S
N1754      C1755   1.343       .  A
N1754     Cu1760   2.064       .  S
C1755      C1756   1.382       .  A
C1755      H1758   1.082       .  S
C1756      C1757   1.389       .  A
C1756      C2569   1.487       .  S
C1757      H1759   1.082       .  S
Cu1760     N1763   2.064       .  S
Cu1761     N1771   2.090       .  S
Cu1762     N1764   2.078       .  S
Cu1762     N1770   2.079       .  S
N1763      N1764   1.321       .  A
N1763      C1767   1.343       .  A
N1764      C1765   1.346       .  A
C1765      C1766   1.387       .  A
C1765      H1768   1.082       .  S
C1766      C1767   1.383       .  A
C1766      C2536   1.484       .  S
C1767      H1769   1.082       .  S
N1770      N1771   1.324       .  A
N1770      C1774   1.345       .  A
N1771      C1772   1.347       .  A
C1772      C1773   1.387       .  A
C1772      H1775   1.082       .  S
C1773      C1774   1.384       .  A
C1773      C3109   1.489       .  S
C1774      H1776   1.082       .  S
N1777      N1778   1.321       .  A
N1777      C1781   1.346       .  A
N1777     Cu1785   2.082       .  S
N1778      C1779   1.343       .  A
N1778     Cu1784   2.065       .  S
C1779      C1780   1.384       .  A
C1779      H1782   1.081       .  S
C1780      C1781   1.388       .  A
C1780      C2526   1.487       .  S
C1781      H1783   1.082       .  S
Cu1784     N1787   2.067       .  S
Cu1785     N1795   2.082       .  S
Cu1786     N1788   2.074       .  S
Cu1786     N1794   2.075       .  S
N1787      N1788   1.321       .  A
N1787      C1791   1.343       .  A
N1788      C1789   1.346       .  A
C1789      C1790   1.387       .  A
C1789      H1792   1.082       .  S
C1790      C1791   1.385       .  A
C1790      C2539   1.486       .  S
C1791      H1793   1.082       .  S
N1794      N1795   1.324       .  A
N1794      C1798   1.345       .  A
N1795      C1796   1.346       .  A
C1796      C1797   1.384       .  A
C1796      H1799   1.082       .  S
C1797      C1798   1.382       .  A
C1797      C2839   1.479       .  S
C1798      H1800   1.082       .  S
N1801      N1802   1.321       .  A
N1801      C1805   1.348       .  A
N1801     Cu1809   2.086       .  S
N1802      C1803   1.342       .  A
N1802     Cu1808   2.067       .  S
C1803      C1804   1.383       .  A
C1803      H1806   1.082       .  S
C1804      C1805   1.390       .  A
C1804      C2559   1.488       .  S
C1805      H1807   1.081       .  S
Cu1808     N1811   2.066       .  S
Cu1809     N1819   2.086       .  S
Cu1810     N1812   2.080       .  S
Cu1810     N1818   2.080       .  S
N1811      N1812   1.321       .  A
N1811      C1815   1.344       .  A
N1812      C1813   1.346       .  A
C1813      C1814   1.387       .  A
C1813      H1816   1.082       .  S
C1814      C1815   1.383       .  A
C1814      C2519   1.482       .  S
C1815      H1817   1.081       .  S
N1818      N1819   1.324       .  A
N1818      C1822   1.346       .  A
N1819      C1820   1.346       .  A
C1820      C1821   1.385       .  A
C1820      H1823   1.082       .  S
C1821      C1822   1.384       .  A
C1821      C2729   1.484       .  S
C1822      H1824   1.082       .  S
N1825      N1826   1.322       .  A
N1825      C1829   1.345       .  A
N1825     Cu1833   2.080       .  S
N1826      C1827   1.344       .  A
N1826     Cu1832   2.070       .  S
C1827      C1828   1.385       .  A
C1827      H1830   1.082       .  S
C1828      C1829   1.386       .  A
C1828      C2529   1.486       .  S
C1829      H1831   1.082       .  S
Cu1832     N1835   2.070       .  S
Cu1833     N1843   2.080       .  S
Cu1834     N1836   2.076       .  S
Cu1834     N1842   2.077       .  S
N1835      N1836   1.322       .  A
N1835      C1839   1.344       .  A
N1836      C1837   1.346       .  A
C1837      C1838   1.385       .  A
C1837      H1840   1.082       .  S
C1838      C1839   1.384       .  A
C1838      C2506   1.482       .  S
C1839      H1841   1.082       .  S
N1842      N1843   1.323       .  A
N1842      C1846   1.345       .  A
N1843      C1844   1.347       .  A
C1844      C1845   1.384       .  A
C1844      H1847   1.082       .  S
C1845      C1846   1.382       .  A
C1845      C3069   1.479       .  S
C1846      H1848   1.082       .  S
N1849      N1850   1.320       .  A
N1849      C1853   1.346       .  A
N1849     Cu1857   2.075       .  S
N1850      C1851   1.341       .  A
N1850     Cu1856   2.060       .  S
C1851      C1852   1.383       .  A
C1851      H1854   1.082       .  S
C1852      C1853   1.388       .  A
C1852      C2509   1.485       .  S
C1853      H1855   1.081       .  S
Cu1856     N1859   2.060       .  S
Cu1857     N1867   2.077       .  S
Cu1858     N1860   2.081       .  S
Cu1858     N1866   2.082       .  S
N1859      N1860   1.321       .  A
N1859      C1863   1.342       .  A
N1860      C1861   1.347       .  A
C1861      C1862   1.387       .  A
C1861      H1864   1.082       .  S
C1862      C1863   1.381       .  A
C1862      C2516   1.482       .  S
C1863      H1865   1.082       .  S
N1866      N1867   1.324       .  A
N1866      C1870   1.346       .  A
N1867      C1868   1.345       .  A
C1868      C1869   1.383       .  A
C1868      H1871   1.082       .  S
C1869      C1870   1.384       .  A
C1869      C3719   1.482       .  S
C1870      H1872   1.082       .  S
N1873      N1874   1.323       .  A
N1873      C1877   1.348       .  A
N1873     Cu1881   2.084       .  S
N1874      C1875   1.343       .  A
N1874     Cu1880   2.072       .  S
C1875      C1876   1.382       .  A
C1875      H1878   1.082       .  S
C1876      C1877   1.386       .  A
C1876      C2489   1.482       .  S
C1877      H1879   1.082       .  S
Cu1880     N1883   2.072       .  S
Cu1881     N1891   2.084       .  S
Cu1882     N1884   2.082       .  S
Cu1882     N1890   2.082       .  S
N1883      N1884   1.321       .  A
N1883      C1887   1.346       .  A
N1884      C1885   1.346       .  A
C1885      C1886   1.387       .  A
C1885      H1888   1.082       .  S
C1886      C1887   1.386       .  A
C1886      C2496   1.488       .  S
C1887      H1889   1.081       .  S
N1890      N1891   1.324       .  A
N1890      C1894   1.347       .  A
N1891      C1892   1.346       .  A
C1892      C1893   1.383       .  A
C1892      H1895   1.082       .  S
C1893      C1894   1.384       .  A
C1893      C3489   1.482       .  S
C1894      H1896   1.082       .  S
N1897      N1898   1.321       .  A
N1897      C1901   1.347       .  A
N1897     Cu1905   2.076       .  S
N1898      C1899   1.346       .  A
N1898     Cu1904   2.077       .  S
C1899      C1900   1.386       .  A
C1899      H1902   1.082       .  S
C1900      C1901   1.386       .  A
C1900      C2476   1.486   1_554  S
C1901      H1903   1.082       .  S
Cu1904     N1907   2.077       .  S
Cu1905     N1915   2.077       .  S
Cu1906     N1908   2.095       .  S
Cu1906     N1914   2.096       .  S
N1907      N1908   1.323       .  A
N1907      C1911   1.343       .  A
N1908      C1909   1.351       .  A
C1909      C1910   1.389       .  A
C1909      H1912   1.082       .  S
C1910      C1911   1.383       .  A
C1910      C2499   1.487       .  S
C1911      H1913   1.082       .  S
N1914      N1915   1.324       .  A
N1914      C1918   1.349       .  A
N1915      C1916   1.345       .  A
C1916      C1917   1.382       .  A
C1916      H1919   1.082       .  S
C1917      C1918   1.387       .  A
C1917      C2469   1.486       .  S
C1918      H1920   1.082       .  S
N1921      N1922   1.323       .  A
N1921      C1925   1.349       .  A
N1921     Cu1929   2.088       .  S
N1922      C1923   1.343       .  A
N1922     Cu1928   2.072       .  S
C1923      C1924   1.382       .  A
C1923      H1926   1.082       .  S
C1924      C1925   1.387       .  A
C1924      C2486   1.484       .  S
C1925      H1927   1.082       .  S
Cu1928     N1931   2.072       .  S
Cu1929     N1939   2.088       .  S
Cu1930     N1932   2.071       .  S
Cu1930     N1938   2.072       .  S
N1931      N1932   1.321       .  A
N1931      C1935   1.344       .  A
N1932      C1933   1.346       .  A
C1933      C1934   1.385       .  A
C1933      H1936   1.082       .  S
C1934      C1935   1.384       .  A
C1934      C2456   1.483   1_554  S
C1935      H1937   1.082       .  S
N1938      N1939   1.324       .  A
N1938      C1942   1.344       .  A
N1939      C1940   1.348       .  A
C1940      C1941   1.384       .  A
C1940      H1943   1.082       .  S
C1941      C1942   1.380       .  A
C1941      C2619   1.477       .  S
C1942      H1944   1.082       .  S
N1945      N1946   1.321       .  A
N1945      C1949   1.348       .  A
N1945     Cu1953   2.087       .  S
N1946      C1947   1.344       .  A
N1946     Cu1952   2.071       .  S
C1947      C1948   1.384       .  A
C1947      H1950   1.082       .  S
C1948      C1949   1.389       .  A
C1948      C2479   1.490       .  S
C1949      H1951   1.082       .  S
Cu1952     N1955   2.070       .  S
Cu1953     N1963   2.087       .  S
Cu1954     N1956   2.088       .  S
Cu1954     N1962   2.089       .  S
N1955      N1956   1.322       .  A
N1955      C1959   1.344       .  A
N1956      C1957   1.348       .  A
C1957      C1958   1.389       .  A
C1957      H1960   1.082       .  S
C1958      C1959   1.384       .  A
C1958      C2446   1.488       .  S
C1959      H1961   1.082       .  S
N1962      N1963   1.325       .  A
N1962      C1966   1.348       .  A
N1963      C1964   1.347       .  A
C1964      C1965   1.383       .  A
C1964      H1967   1.082       .  S
C1965      C1966   1.384       .  A
C1965      C3559   1.480       .  S
C1966      H1968   1.082       .  S
N1969      N1970   1.322       .  A
N1969      C1973   1.348       .  A
N1969     Cu1977   2.080       .  S
N1970      C1971   1.344       .  A
N1970     Cu1976   2.075       .  S
C1971      C1972   1.384       .  A
C1971      H1974   1.082       .  S
C1972      C1973   1.386       .  A
C1972      C2439   1.483       .  S
C1973      H1975   1.082       .  S
Cu1976     N1979   2.075       .  S
Cu1977     N1987   2.081       .  S
Cu1978     N1980   2.082       .  S
Cu1978     N1986   2.083       .  S
N1979      N1980   1.322       .  A
N1979      C1983   1.344       .  A
N1980      C1981   1.347       .  A
C1981      C1982   1.386       .  A
C1981      H1984   1.082       .  S
C1982      C1983   1.384       .  A
C1982      C2459   1.485       .  S
C1983      H1985   1.082       .  S
N1986      N1987   1.324       .  A
N1986      C1990   1.347       .  A
N1987      C1988   1.345       .  A
C1988      C1989   1.383       .  A
C1988      H1991   1.082       .  S
C1989      C1990   1.384       .  A
C1989      C3629   1.481       .  S
C1990      H1992   1.082       .  S
N1993      N1994   1.320       .  A
N1993      C1997   1.347       .  A
N1993     Cu2001   2.075       .  S
N1994      C1995   1.342       .  A
N1994     Cu2000   2.070       .  S
C1995      C1996   1.385       .  A
C1995      H1998   1.082       .  S
C1996      C1997   1.388       .  A
C1996      C2436   1.487       .  S
C1997      H1999   1.081       .  S
Cu2000     N2003   2.070       .  S
Cu2001     N2011   2.075       .  S
Cu2002     N2004   2.082       .  S
Cu2002     N2010   2.083       .  S
N2003      N2004   1.321       .  A
N2003      C2007   1.344       .  A
N2004      C2005   1.347       .  A
C2005      C2006   1.388       .  A
C2005      H2008   1.082       .  S
C2006      C2007   1.384       .  A
C2006      C2449   1.488       .  S
C2007      H2009   1.082       .  S
N2010      N2011   1.325       .  A
N2010      C2014   1.346       .  A
N2011      C2012   1.345       .  A
C2012      C2013   1.380       .  A
C2012      H2015   1.082       .  S
C2013      C2014   1.383       .  A
C2013      C2659   1.475       .  S
C2014      H2016   1.082       .  S
N2017      N2018   1.322       .  A
N2017      C2021   1.348       .  A
N2017     Cu2025   2.081       .  S
N2018      C2019   1.345       .  A
N2018     Cu2024   2.077       .  S
C2019      C2020   1.384       .  A
C2019      H2022   1.082       .  S
C2020      C2021   1.386       .  A
C2020      C2416   1.484       .  S
C2021      H2023   1.082       .  S
Cu2024     N2027   2.076       .  S
Cu2025     N2035   2.081       .  S
Cu2026     N2028   2.070       .  S
Cu2026     N2034   2.070       .  S
N2027      N2028   1.322       .  A
N2027      C2031   1.344       .  A
N2028      C2029   1.345       .  A
C2029      C2030   1.384       .  A
C2029      H2032   1.082       .  S
C2030      C2031   1.385       .  A
C2030      C2426   1.481       .  S
C2031      H2033   1.082       .  S
N2034      N2035   1.323       .  A
N2034      C2038   1.346       .  A
N2035      C2036   1.346       .  A
C2036      C2037   1.382       .  A
C2036      H2039   1.082       .  S
C2037      C2038   1.380       .  A
C2037      C3389   1.474       .  S
C2038      H2040   1.082       .  S
N2041      N2042   1.322       .  A
N2041      C2045   1.345       .  A
N2041     Cu2049   2.072       .  S
N2042      C2043   1.343       .  A
N2042     Cu2048   2.069       .  S
C2043      C2044   1.383       .  A
C2043      H2046   1.082       .  S
C2044      C2045   1.384       .  A
C2044      C2429   1.480       .  S
C2045      H2047   1.082       .  S
Cu2048     N2051   2.069       .  S
Cu2049     N2059   2.073       .  S
Cu2050     N2052   2.075       .  S
Cu2050     N2058   2.076       .  S
N2051      N2052   1.322       .  A
N2051      C2055   1.344       .  A
N2052      C2053   1.346       .  A
C2053      C2054   1.385       .  A
C2053      H2056   1.082       .  S
C2054      C2055   1.383       .  A
C2054      C2409   1.480       .  S
C2055      H2057   1.082       .  S
N2058      N2059   1.323       .  A
N2058      C2062   1.344       .  A
N2059      C2060   1.346       .  A
C2060      C2061   1.382       .  A
C2060      H2063   1.082       .  S
C2061      C2062   1.382       .  A
C2061      C2669   1.477       .  S
C2062      H2064   1.082       .  S
N2065      N2066   1.321       .  A
N2065      C2069   1.347       .  A
N2065     Cu2073   2.078       .  S
N2066      C2067   1.342       .  A
N2066     Cu2072   2.062       .  S
C2067      C2068   1.382       .  A
C2067      H2070   1.082       .  S
C2068      C2069   1.387       .  A
C2068      C2396   1.481       .  S
C2069      H2071   1.082       .  S
Cu2072     N2075   2.063       .  S
Cu2073     N2083   2.079       .  S
Cu2074     N2076   2.098       .  S
Cu2074     N2082   2.099       .  S
N2075      N2076   1.322       .  A
N2075      C2079   1.342       .  A
N2076      C2077   1.351       .  A
C2077      C2078   1.390       .  A
C2077      H2080   1.082       .  S
C2078      C2079   1.380       .  A
C2078      C2419   1.485       .  S
C2079      H2081   1.082       .  S
N2082      N2083   1.325       .  A
N2082      C2086   1.349       .  A
N2083      C2084   1.345       .  A
C2084      C2085   1.382       .  A
C2084      H2087   1.082       .  S
C2085      C2086   1.387       .  A
C2085      C2466   1.486       .  S
C2086      H2088   1.082       .  S
N2089      N2090   1.321       .  A
N2089      C2093   1.347       .  A
N2089     Cu2097   2.078       .  S
N2090      C2091   1.342       .  A
N2090     Cu2096   2.059       .  S
C2091      C2092   1.380       .  A
C2091      H2094   1.082       .  S
C2092      C2093   1.386       .  A
C2092      C2399   1.478       .  S
C2093      H2095   1.082       .  S
Cu2096     N2099   2.059       .  S
Cu2097     N2107   2.079       .  S
Cu2098     N2100   2.078       .  S
Cu2098     N2106   2.079       .  S
N2099      N2100   1.321       .  A
N2099      C2103   1.341       .  A
N2100      C2101   1.347       .  A
C2101      C2102   1.386       .  A
C2101      H2104   1.082       .  S
C2102      C2103   1.380       .  A
C2102      C2386   1.479       .  S
C2103      H2105   1.082       .  S
N2106      N2107   1.324       .  A
N2106      C2110   1.346       .  A
N2107      C2108   1.345       .  A
C2108      C2109   1.382       .  A
C2108      H2111   1.082       .  S
C2109      C2110   1.382       .  A
C2109      C3206   1.477       .  S
C2110      H2112   1.082       .  S
N2113      N2114   1.322       .  A
N2113      C2117   1.349       .  A
N2113     Cu2121   2.085       .  S
N2114      C2115   1.342       .  A
N2114     Cu2120   2.065       .  S
C2115      C2116   1.381       .  A
C2115      H2118   1.082       .  S
C2116      C2117   1.387       .  A
C2116      C2376   1.480       .  S
C2117      H2119   1.082       .  S
Cu2120     N2123   2.065       .  S
Cu2121     N2131   2.086       .  S
Cu2122     N2124   2.072       .  S
Cu2122     N2130   2.073       .  S
N2123      N2124   1.320       .  A
N2123      C2127   1.342       .  A
N2124      C2125   1.346       .  A
C2125      C2126   1.386       .  A
C2125      H2128   1.082       .  S
C2126      C2127   1.383       .  A
C2126      C2389   1.482       .  S
C2127      H2129   1.082       .  S
N2130      N2131   1.324       .  A
N2130      C2134   1.345       .  A
N2131      C2132   1.346       .  A
C2132      C2133   1.383       .  A
C2132      H2135   1.082       .  S
C2133      C2134   1.380       .  A
C2133      C2576   1.477       .  S
C2134      H2136   1.082       .  S
N2137      N2138   1.321       .  A
N2137      C2141   1.344       .  A
N2137     Cu2145   2.062       .  S
N2138      C2139   1.345       .  A
N2138     Cu2144   2.076       .  S
C2139      C2140   1.386       .  A
C2139      H2142   1.082       .  S
C2140      C2141   1.383       .  A
C2140      C2406   1.481       .  S
C2141      H2143   1.082       .  S
Cu2144     N2147   2.077       .  S
Cu2145     N2155   2.062       .  S
Cu2146     N2148   2.083       .  S
Cu2146     N2154   2.083       .  S
N2147      N2148   1.323       .  A
N2147      C2151   1.344       .  A
N2148      C2149   1.347       .  A
C2149      C2150   1.387       .  A
C2149      H2152   1.082       .  S
C2150      C2151   1.385       .  A
C2150      C2379   1.488       .  S
C2151      H2153   1.082       .  S
N2154      N2155   1.323       .  A
N2154      C2158   1.347       .  A
N2155      C2156   1.342       .  A
C2156      C2157   1.379       .  A
C2156      H2159   1.082       .  S
C2157      C2158   1.385       .  A
C2157      C2366   1.476       .  S
C2158      H2160   1.082       .  S
N2161      N2162   1.321       .  A
N2161      C2165   1.344       .  A
N2161     Cu2169   2.059       .  S
N2162      C2163   1.344       .  A
N2162     Cu2168   2.072       .  S
C2163      C2164   1.383       .  A
C2163      H2166   1.082       .  S
C2164      C2165   1.381       .  A
C2164      C2356   1.475       .  S
C2165      H2167   1.082       .  S
Cu2168     N2171   2.072       .  S
Cu2169     N2179   2.059       .  S
Cu2170     N2172   2.083       .  S
Cu2170     N2178   2.083       .  S
N2171      N2172   1.323       .  A
N2171      C2175   1.343       .  A
N2172      C2173   1.347       .  A
C2173      C2174   1.387       .  A
C2173      H2176   1.082       .  S
C2174      C2175   1.383       .  A
C2174      C2349   1.485       .  S
C2175      H2177   1.082       .  S
N2178      N2179   1.323       .  A
N2178      C2182   1.346       .  A
N2179      C2180   1.343       .  A
C2180      C2181   1.379       .  A
C2180      H2183   1.082       .  S
C2181      C2182   1.385       .  A
C2181      C2369   1.475       .  S
C2182      H2184   1.082       .  S
N2185      N2186   1.321       .  A
N2185      C2189   1.345       .  A
N2185     Cu2193   2.068       .  S
N2186      C2187   1.345       .  A
N2186     Cu2192   2.076       .  S
C2187      C2188   1.386       .  A
C2187      H2190   1.082       .  S
C2188      C2189   1.384       .  A
C2188      C2339   1.484       .  S
C2189      H2191   1.082       .  S
Cu2192     N2195   2.077       .  S
Cu2193     N2203   2.068       .  S
Cu2194     N2196   2.078       .  S
Cu2194     N2202   2.078       .  S
N2195      N2196   1.323       .  A
N2195      C2199   1.345       .  A
N2196      C2197   1.347       .  A
C2197      C2198   1.384       .  A
C2197      H2200   1.082       .  S
C2198      C2199   1.382       .  A
C2198      C2346   1.480       .  S
C2199      H2201   1.082       .  S
N2202      N2203   1.323       .  A
N2202      C2206   1.347       .  A
N2203      C2204   1.344       .  A
C2204      C2205   1.379       .  A
C2204      H2207   1.082       .  S
C2205      C2206   1.382       .  A
C2205      C2899   1.473       .  S
C2206      H2208   1.082       .  S
N2209      N2210   1.321       .  A
N2209      C2213   1.343       .  A
N2209     Cu2217   2.069       .  S
N2210      C2211   1.346       .  A
N2210     Cu2216   2.072       .  S
C2211      C2212   1.385       .  A
C2211      H2214   1.082       .  S
C2212      C2213   1.383       .  A
C2212      C2336   1.482       .  S
C2213      H2215   1.082       .  S
Cu2216     N2219   2.072       .  S
Cu2217     N2227   2.069       .  S
Cu2218     N2220   2.079       .  S
Cu2218     N2226   2.079       .  S
N2219      N2220   1.323       .  A
N2219      C2223   1.343       .  A
N2220      C2221   1.346       .  A
C2221      C2222   1.386       .  A
C2221      H2224   1.081       .  S
C2222      C2223   1.383       .  A
C2222      C2326   1.482       .  S
C2223      H2225   1.082       .  S
N2226      N2227   1.322       .  A
N2226      C2230   1.345       .  A
N2227      C2228   1.345       .  A
C2228      C2229   1.382       .  A
C2228      H2231   1.082       .  S
C2229      C2230   1.384       .  A
C2229      C3319   1.480       .  S
C2230      H2232   1.082       .  S
N2233      N2234   1.322       .  A
N2233      C2237   1.346       .  A
N2233     Cu2241   2.076       .  S
N2234      C2235   1.343       .  A
N2234     Cu2240   2.071       .  S
C2235      C2236   1.383       .  A
C2235      H2238   1.082       .  S
C2236      C2237   1.385       .  A
C2236      C2329   1.482       .  S
C2237      H2239   1.082       .  S
Cu2240     N2243   2.071       .  S
Cu2241     N2251   2.077       .  S
Cu2242     N2244   2.069       .  S
Cu2242     N2250   2.069       .  S
N2243      N2244   1.321       .  A
N2243      C2247   1.344       .  A
N2244      C2245   1.345       .  A
C2245      C2246   1.383       .  A
C2245      H2248   1.082       .  S
C2246      C2247   1.383       .  A
C2246      C2316   1.479       .  S
C2247      H2249   1.082       .  S
N2250      N2251   1.323       .  A
N2250      C2254   1.344       .  A
N2251      C2252   1.346       .  A
C2252      C2253   1.384       .  A
C2252      H2255   1.082       .  S
C2253      C2254   1.382       .  A
C2253      C3676   1.479       .  S
C2254      H2256   1.082       .  S
N2257      N2258   1.322       .  A
N2257      C2261   1.347       .  A
N2257     Cu2265   2.084       .  S
N2258      C2259   1.343       .  A
N2258     Cu2264   2.064       .  S
C2259      C2260   1.382       .  A
C2259      H2262   1.082       .  S
C2260      C2261   1.388       .  A
C2260      C2306   1.483       .  S
C2261      H2263   1.082       .  S
Cu2264     N2267   2.063       .  S
Cu2265     N2275   2.085       .  S
Cu2266     N2268   2.078       .  S
Cu2266     N2274   2.079       .  S
N2267      N2268   1.321       .  A
N2267      C2271   1.342       .  A
N2268      C2269   1.348       .  A
C2269      C2270   1.386       .  A
C2269      H2272   1.082       .  S
C2270      C2271   1.381       .  A
C2270      C2319   1.478       .  S
C2271      H2273   1.082       .  S
N2274      N2275   1.325       .  A
N2274      C2278   1.345       .  A
N2275      C2276   1.347       .  A
C2276      C2277   1.383       .  A
C2276      H2279   1.082       .  S
C2277      C2278   1.382       .  A
C2277      C3269   1.480       .  S
C2278      H2280   1.082       .  S
N2281      N2282   1.322       .  A
N2281      C2285   1.346       .  A
N2281     Cu2289   2.082       .  S
N2282      C2283   1.345       .  A
N2282     Cu2288   2.069       .  S
C2283      C2284   1.382       .  A
C2283      H2286   1.082       .  S
C2284      C2285   1.385       .  A
C2284      C2309   1.481       .  S
C2285      H2287   1.082       .  S
Cu2288     N2291   2.068       .  S
Cu2289     N2299   2.082       .  S
Cu2290     N2292   2.075       .  S
Cu2290     N2298   2.075       .  S
N2291      N2292   1.322       .  A
N2291      C2295   1.343       .  A
N2292      C2293   1.346       .  A
C2293      C2294   1.384       .  A
C2293      H2296   1.082       .  S
C2294      C2295   1.382       .  A
C2294      C2359   1.479       .  S
C2295      H2297   1.082       .  S
N2298      N2299   1.324       .  A
N2298      C2302   1.345       .  A
N2299      C2300   1.347       .  A
C2300      C2301   1.382       .  A
C2300      H2303   1.082       .  S
C2301      C2302   1.381       .  A
C2301      C2549   1.476       .  S
C2302      H2304   1.082       .  S
C2305      C2306   1.413       .  A
C2305      C2310   1.409       .  A
C2305     Br2312   1.932       .  S
C2306      C2307   1.413       .  A
C2307      C2308   1.408   1_655  A
C2307     Br2314   1.932       .  S
C2308      C2309   1.410       .  A
C2308     Br2313   1.932       .  S
C2309      C2310   1.411   1_455  A
C2310     Br2311   1.931   1_655  S
C2315      C2316   1.411       .  A
C2315      C2320   1.409       .  A
C2315     Br2322   1.931       .  S
C2316      C2317   1.411       .  A
C2317      C2318   1.407       .  A
C2317     Br2324   1.931       .  S
C2318      C2319   1.411       .  A
C2318     Br2323   1.932       .  S
C2319      C2320   1.410       .  A
C2320     Br2321   1.930       .  S
C2325      C2326   1.411       .  A
C2325      C2330   1.408       .  A
C2325     Br2332   1.932       .  S
C2326      C2327   1.413       .  A
C2327      C2328   1.408       .  A
C2327     Br2334   1.932       .  S
C2328      C2329   1.412       .  A
C2328     Br2333   1.933       .  S
C2329      C2330   1.412       .  A
C2330     Br2331   1.932       .  S
C2335      C2336   1.411       .  A
C2335      C2340   1.408   1_655  A
C2335     Br2342   1.933       .  S
C2336      C2337   1.412       .  A
C2337      C2338   1.408   1_655  A
C2337     Br2344   1.932       .  S
C2338      C2339   1.413       .  A
C2338     Br2343   1.933       .  S
C2339      C2340   1.413       .  A
C2340     Br2341   1.932       .  S
C2345      C2346   1.410       .  A
C2345      C2350   1.408       .  A
C2345     Br2352   1.932       .  S
C2346      C2347   1.409       .  A
C2347      C2348   1.409       .  A
C2347     Br2354   1.931       .  S
C2348      C2349   1.414       .  A
C2348     Br2353   1.931       .  S
C2349      C2350   1.414       .  A
C2350     Br2351   1.933       .  S
C2355      C2356   1.408       .  A
C2355      C2360   1.407       .  A
C2355     Br2362   1.931       .  S
C2356      C2357   1.409       .  A
C2357      C2358   1.407       .  A
C2357     Br2364   1.931       .  S
C2358      C2359   1.411       .  A
C2358     Br2363   1.931       .  S
C2359      C2360   1.412       .  A
C2360     Br2361   1.930       .  S
C2365      C2366   1.411       .  A
C2365      C2370   1.407       .  A
C2365     Br2372   1.930       .  S
C2366      C2367   1.409       .  A
C2367      C2368   1.407       .  A
C2367     Br2374   1.931       .  S
C2368      C2369   1.411       .  A
C2368     Br2373   1.931       .  S
C2369      C2370   1.408       .  A
C2370     Br2371   1.931       .  S
C2375      C2376   1.409       .  A
C2375      C2380   1.407       .  A
C2375     Br2382   1.933       .  S
C2376      C2377   1.409       .  A
C2377      C2378   1.411       .  A
C2377     Br2384   1.930       .  S
C2378      C2379   1.415       .  A
C2378     Br2383   1.931       .  S
C2379      C2380   1.415       .  A
C2380     Br2381   1.933       .  S
C2385      C2386   1.411       .  A
C2385      C2390   1.407   1_655  A
C2385     Br2392   1.933       .  S
C2386      C2387   1.410       .  A
C2387      C2388   1.408   1_655  A
C2387     Br2394   1.931       .  S
C2388      C2389   1.413       .  A
C2388     Br2393   1.932       .  S
C2389      C2390   1.413       .  A
C2390     Br2391   1.932       .  S
C2395      C2396   1.413       .  A
C2395      C2400   1.407       .  A
C2395     Br2402   1.932       .  S
C2396      C2397   1.412       .  A
C2397      C2398   1.408       .  A
C2397     Br2404   1.931       .  S
C2398      C2399   1.411       .  A
C2398     Br2403   1.932       .  S
C2399      C2400   1.409       .  A
C2400     Br2401   1.932       .  S
C2405      C2406   1.412       .  A
C2405      C2410   1.409       .  A
C2405     Br2412   1.931       .  S
C2406      C2407   1.412       .  A
C2407      C2408   1.407       .  A
C2407     Br2414   1.933       .  S
C2408      C2409   1.412       .  A
C2408     Br2413   1.933       .  S
C2409      C2410   1.411       .  A
C2410     Br2411   1.931       .  S
C2415      C2416   1.411       .  A
C2415      C2420   1.410       .  A
C2415     Br2422   1.931       .  S
C2416      C2417   1.412       .  A
C2417      C2418   1.409       .  A
C2417     Br2424   1.932       .  S
C2418      C2419   1.411       .  A
C2418     Br2423   1.930       .  S
C2419      C2420   1.413       .  A
C2420     Br2421   1.931       .  S
C2425      C2426   1.413       .  A
C2425      C2430   1.408       .  A
C2425     Br2432   1.932       .  S
C2426      C2427   1.412       .  A
C2427      C2428   1.408   1_655  A
C2427     Br2434   1.932       .  S
C2428      C2429   1.412       .  A
C2428     Br2433   1.932       .  S
C2429      C2430   1.410   1_455  A
C2430     Br2431   1.932   1_655  S
C2435      C2436   1.414       .  A
C2435      C2440   1.409   1_545  A
C2435     Br2442   1.933       .  S
C2436      C2437   1.414       .  A
C2437      C2438   1.409   1_545  A
C2437     Br2444   1.931       .  S
C2438      C2439   1.411       .  A
C2438     Br2443   1.933       .  S
C2439      C2440   1.410       .  A
C2440     Br2441   1.930       .  S
C2445      C2446   1.413       .  A
C2445      C2450   1.410   1_655  A
C2445     Br2452   1.931       .  S
C2446      C2447   1.414       .  A
C2447      C2448   1.409   1_655  A
C2447     Br2454   1.933       .  S
C2448      C2449   1.414       .  A
C2448     Br2453   1.934       .  S
C2449      C2450   1.413       .  A
C2450     Br2451   1.932       .  S
C2455      C2456   1.412       .  A
C2455      C2460   1.408       .  A
C2455     Br2462   1.932       .  S
C2456      C2457   1.411       .  A
C2457      C2458   1.409       .  A
C2457     Br2464   1.932       .  S
C2458      C2459   1.413       .  A
C2458     Br2463   1.931       .  S
C2459      C2460   1.412       .  A
C2460     Br2461   1.932       .  S
C2465      C2466   1.411       .  A
C2465      C2470   1.411       .  A
C2465     Br2472   1.931       .  S
C2466      C2467   1.412       .  A
C2467      C2468   1.411       .  A
C2467     Br2474   1.930       .  S
C2468      C2469   1.411       .  A
C2468     Br2473   1.930       .  S
C2469      C2470   1.413       .  A
C2470     Br2471   1.932       .  S
C2475      C2476   1.411       .  A
C2475      C2480   1.411       .  A
C2475     Br2482   1.932       .  S
C2476      C2477   1.411       .  A
C2477      C2478   1.410       .  A
C2477     Br2484   1.932       .  S
C2478      C2479   1.414       .  A
C2478     Br2483   1.933       .  S
C2479      C2480   1.415       .  A
C2480     Br2481   1.931       .  S
C2485      C2486   1.412       .  A
C2485      C2490   1.407   1_455  A
C2485     Br2492   1.932       .  S
C2486      C2487   1.412       .  A
C2487      C2488   1.411   1_455  A
C2487     Br2494   1.930       .  S
C2488      C2489   1.410       .  A
C2488     Br2493   1.930       .  S
C2489      C2490   1.411       .  A
C2490     Br2491   1.933       .  S
C2495      C2496   1.414       .  A
C2495      C2500   1.412   1_565  A
C2495     Br2502   1.932       .  S
C2496      C2497   1.414   1_565  A
C2497      C2498   1.409       .  A
C2497     Br2504   1.932   1_545  S
C2498      C2499   1.412       .  A
C2498     Br2503   1.933       .  S
C2499      C2500   1.411       .  A
C2500     Br2501   1.929       .  S
C2505      C2506   1.411       .  A
C2505      C2510   1.408       .  A
C2505     Br2512   1.933       .  S
C2506      C2507   1.411       .  A
C2507      C2508   1.408       .  A
C2507     Br2514   1.932       .  S
C2508      C2509   1.414       .  A
C2508     Br2513   1.933       .  S
C2509      C2510   1.415       .  A
C2510     Br2511   1.933       .  S
C2515      C2516   1.411       .  A
C2515      C2520   1.409       .  A
C2515     Br2522   1.931       .  S
C2516      C2517   1.412       .  A
C2517      C2518   1.408       .  A
C2517     Br2524   1.933       .  S
C2518      C2519   1.412       .  A
C2518     Br2523   1.932       .  S
C2519      C2520   1.412       .  A
C2520     Br2521   1.931       .  S
C2525      C2526   1.415       .  A
C2525      C2530   1.408       .  A
C2525     Br2532   1.935       .  S
C2526      C2527   1.413       .  A
C2527      C2528   1.409       .  A
C2527     Br2534   1.932       .  S
C2528      C2529   1.412       .  A
C2528     Br2533   1.932       .  S
C2529      C2530   1.414       .  A
C2530     Br2531   1.935       .  S
C2535      C2536   1.412       .  A
C2535      C2540   1.408       .  A
C2535     Br2542   1.933       .  S
C2536      C2537   1.413       .  A
C2537      C2538   1.408       .  A
C2537     Br2544   1.933       .  S
C2538      C2539   1.413       .  A
C2538     Br2543   1.933       .  S
C2539      C2540   1.414       .  A
C2540     Br2541   1.933       .  S
C2545      C2546   1.410       .  A
C2545      C2550   1.408       .  A
C2545     Br2552   1.930       .  S
C2546      C2547   1.410       .  A
C2547      C2548   1.408       .  A
C2547     Br2554   1.929       .  S
C2548      C2549   1.408       .  A
C2548     Br2553   1.929       .  S
C2549      C2550   1.408       .  A
C2550     Br2551   1.929       .  S
C2555      C2556   1.411       .  A
C2555      C2560   1.409       .  A
C2555     Br2562   1.933       .  S
C2556      C2557   1.411       .  A
C2557      C2558   1.409       .  A
C2557     Br2564   1.932       .  S
C2558      C2559   1.414       .  A
C2558     Br2563   1.933       .  S
C2559      C2560   1.415       .  A
C2560     Br2561   1.931       .  S
C2565      C2566   1.414       .  A
C2565      C2570   1.411       .  A
C2565     Br2572   1.931       .  S
C2566      C2567   1.413       .  A
C2567      C2568   1.408       .  A
C2567     Br2574   1.934       .  S
C2568      C2569   1.413       .  A
C2568     Br2573   1.933       .  S
C2569      C2570   1.413       .  A
C2570     Br2571   1.932       .  S
C2575      C2576   1.410       .  A
C2575      C2580   1.408       .  A
C2575     Br2582   1.930       .  S
C2576      C2577   1.409       .  A
C2577      C2578   1.408       .  A
C2577     Br2584   1.931       .  S
C2578      C2579   1.411       .  A
C2578     Br2583   1.931       .  S
C2579      C2580   1.411       .  A
C2580     Br2581   1.930       .  S
C2585      C2586   1.410       .  A
C2585      C2590   1.407   1_565  A
C2585     Br2592   1.933       .  S
C2586      C2587   1.410       .  A
C2587      C2588   1.409   1_565  A
C2587     Br2594   1.931       .  S
C2588      C2589   1.413       .  A
C2588     Br2593   1.931       .  S
C2589      C2590   1.414       .  A
C2590     Br2591   1.933       .  S
C2595      C2596   1.412       .  A
C2595      C2600   1.407       .  A
C2595     Br2602   1.932       .  S
C2596      C2597   1.410       .  A
C2597      C2598   1.408       .  A
C2597     Br2604   1.930       .  S
C2598      C2599   1.410       .  A
C2598     Br2603   1.930       .  S
C2599      C2600   1.410       .  A
C2600     Br2601   1.931       .  S
C2605      C2606   1.414       .  A
C2605      C2610   1.410       .  A
C2605     Br2612   1.931       .  S
C2606      C2607   1.414       .  A
C2607      C2608   1.406       .  A
C2607     Br2614   1.934       .  S
C2608      C2609   1.412       .  A
C2608     Br2613   1.934       .  S
C2609      C2610   1.409       .  A
C2610     Br2611   1.930       .  S
C2615      C2616   1.409       .  A
C2615      C2620   1.409       .  A
C2615     Br2622   1.929       .  S
C2616      C2617   1.408       .  A
C2617      C2618   1.408       .  A
C2617     Br2624   1.929       .  S
C2618      C2619   1.410       .  A
C2618     Br2623   1.930       .  S
C2619      C2620   1.410       .  A
C2620     Br2621   1.929       .  S
C2625      C2626   1.410       .  A
C2625      C2630   1.407       .  A
C2625     Br2632   1.933       .  S
C2626      C2627   1.411       .  A
C2627      C2628   1.407       .  A
C2627     Br2634   1.932       .  S
C2628      C2629   1.412       .  A
C2628     Br2633   1.933       .  S
C2629      C2630   1.414       .  A
C2630     Br2631   1.932       .  S
C2635      C2636   1.413       .  A
C2635      C2640   1.409       .  A
C2635     Br2642   1.933       .  S
C2636      C2637   1.411       .  A
C2637      C2638   1.410       .  A
C2637     Br2644   1.931       .  S
C2638      C2639   1.413       .  A
C2638     Br2643   1.931       .  S
C2639      C2640   1.414       .  A
C2640     Br2641   1.933       .  S
C2645      C2646   1.415       .  A
C2645      C2650   1.408   1_545  A
C2645     Br2652   1.934       .  S
C2646      C2647   1.414       .  A
C2647      C2648   1.410       .  A
C2647     Br2654   1.932       .  S
C2648      C2649   1.412   1_545  A
C2648     Br2653   1.932   1_545  S
C2649      C2650   1.412       .  A
C2650     Br2651   1.933       .  S
C2655      C2656   1.408       .  A
C2655      C2660   1.407       .  A
C2655     Br2662   1.930       .  S
C2656      C2657   1.408       .  A
C2657      C2658   1.407       .  A
C2657     Br2664   1.929       .  S
C2658      C2659   1.410       .  A
C2658     Br2663   1.930       .  S
C2659      C2660   1.410       .  A
C2660     Br2661   1.929       .  S
C2665      C2666   1.413       .  A
C2665      C2670   1.409       .  A
C2665     Br2672   1.931       .  S
C2666      C2667   1.411       .  A
C2667      C2668   1.407       .  A
C2667     Br2674   1.931       .  S
C2668      C2669   1.409       .  A
C2668     Br2673   1.931       .  S
C2669      C2670   1.409       .  A
C2670     Br2671   1.931       .  S
C2675      C2676   1.411       .  A
C2675      C2680   1.408       .  A
C2675     Br2682   1.931       .  S
C2676      C2677   1.412       .  A
C2677      C2678   1.409       .  A
C2677     Br2684   1.932       .  S
C2678      C2679   1.412       .  A
C2678     Br2683   1.932       .  S
C2679      C2680   1.411       .  A
C2680     Br2681   1.932       .  S
C2685      C2686   1.413       .  A
C2685      C2690   1.405       .  A
C2685     Br2692   1.933       .  S
C2686      C2687   1.411       .  A
C2687      C2688   1.408       .  A
C2687     Br2694   1.931       .  S
C2688      C2689   1.410       .  A
C2688     Br2693   1.931       .  S
C2689      C2690   1.409       .  A
C2690     Br2691   1.933       .  S
C2695      C2696   1.412       .  A
C2695      C2700   1.408       .  A
C2695     Br2702   1.932       .  S
C2696      C2697   1.410       .  A
C2697      C2698   1.408       .  A
C2697     Br2704   1.931       .  S
C2698      C2699   1.411       .  A
C2698     Br2703   1.931       .  S
C2699      C2700   1.412       .  A
C2700     Br2701   1.932       .  S
C2705      C2706   1.411       .  A
C2705      C2710   1.409       .  A
C2705     Br2712   1.930       .  S
C2706      C2707   1.412       .  A
C2707      C2708   1.408       .  A
C2707     Br2714   1.934       .  S
C2708      C2709   1.413       .  A
C2708     Br2713   1.933       .  S
C2709      C2710   1.412       .  A
C2710     Br2711   1.932       .  S
C2715      C2716   1.413       .  A
C2715      C2720   1.408       .  A
C2715     Br2722   1.931       .  S
C2716      C2717   1.413       .  A
C2717      C2718   1.406       .  A
C2717     Br2724   1.933       .  S
C2718      C2719   1.409       .  A
C2718     Br2723   1.931       .  S
C2719      C2720   1.409       .  A
C2720     Br2721   1.932       .  S
C2725      C2726   1.407       .  A
C2725      C2730   1.408       .  A
C2725     Br2732   1.931       .  S
C2726      C2727   1.409       .  A
C2727      C2728   1.409       .  A
C2727     Br2734   1.931       .  S
C2728      C2729   1.413       .  A
C2728     Br2733   1.930       .  S
C2729      C2730   1.413       .  A
C2730     Br2731   1.930       .  S
C2735      C2736   1.412       .  A
C2735      C2740   1.407       .  A
C2735     Br2742   1.933       .  S
C2736      C2737   1.411       .  A
C2737      C2738   1.407       .  A
C2737     Br2744   1.932       .  S
C2738      C2739   1.412       .  A
C2738     Br2743   1.933       .  S
C2739      C2740   1.413       .  A
C2740     Br2741   1.932       .  S
C2745      C2746   1.409       .  A
C2745      C2750   1.409       .  A
C2745     Br2752   1.932       .  S
C2746      C2747   1.409       .  A
C2747      C2748   1.407       .  A
C2747     Br2754   1.932       .  S
C2748      C2749   1.414       .  A
C2748     Br2753   1.932       .  S
C2749      C2750   1.416       .  A
C2750     Br2751   1.932       .  S
C2755      C2756   1.411       .  A
C2755      C2760   1.409       .  A
C2755     Br2762   1.932       .  S
C2756      C2757   1.410       .  A
C2757      C2758   1.410       .  A
C2757     Br2764   1.931       .  S
C2758      C2759   1.412       .  A
C2758     Br2763   1.930       .  S
C2759      C2760   1.412       .  A
C2760     Br2761   1.931       .  S
C2765      C2766   1.413       .  A
C2765      C2770   1.407       .  A
C2765     Br2772   1.933       .  S
C2766      C2767   1.413       .  A
C2767      C2768   1.409       .  A
C2767     Br2774   1.931       .  S
C2768      C2769   1.410       .  A
C2768     Br2773   1.931       .  S
C2769      C2770   1.412       .  A
C2770     Br2771   1.933       .  S
C2775      C2776   1.413       .  A
C2775      C2780   1.407       .  A
C2775     Br2782   1.932       .  S
C2776      C2777   1.412       .  A
C2777      C2778   1.409       .  A
C2777     Br2784   1.930       .  S
C2778      C2779   1.409       .  A
C2778     Br2783   1.930       .  S
C2779      C2780   1.410       .  A
C2780     Br2781   1.932       .  S
C2785      C2786   1.413       .  A
C2785      C2790   1.407       .  A
C2785     Br2792   1.934       .  S
C2786      C2787   1.412       .  A
C2787      C2788   1.409       .  A
C2787     Br2794   1.931       .  S
C2788      C2789   1.411       .  A
C2788     Br2793   1.931       .  S
C2789      C2790   1.412       .  A
C2790     Br2791   1.933       .  S
C2795      C2796   1.411       .  A
C2795      C2800   1.407       .  A
C2795     Br2802   1.934       .  S
C2796      C2797   1.411       .  A
C2797      C2798   1.410       .  A
C2797     Br2804   1.932       .  S
C2798      C2799   1.416       .  A
C2798     Br2803   1.933       .  S
C2799      C2800   1.415       .  A
C2800     Br2801   1.932       .  S
C2805      C2806   1.414       .  A
C2805      C2810   1.412       .  A
C2805     Br2812   1.931       .  S
C2806      C2807   1.414       .  A
C2807      C2808   1.409       .  A
C2807     Br2814   1.934       .  S
C2808      C2809   1.414       .  A
C2808     Br2813   1.934       .  S
C2809      C2810   1.412       .  A
C2810     Br2811   1.931       .  S
C2815      C2816   1.410       .  A
C2815      C2820   1.409       .  A
C2815     Br2822   1.932       .  S
C2816      C2817   1.412       .  A
C2817      C2818   1.407       .  A
C2817     Br2824   1.932       .  S
C2818      C2819   1.412       .  A
C2818     Br2823   1.933       .  S
C2819      C2820   1.414       .  A
C2820     Br2821   1.931       .  S
C2825      C2826   1.409       .  A
C2825      C2830   1.406       .  A
C2825     Br2832   1.930       .  S
C2826      C2827   1.409       .  A
C2827      C2828   1.405       .  A
C2827     Br2834   1.930       .  S
C2828      C2829   1.408       .  A
C2828     Br2833   1.930       .  S
C2829      C2830   1.408       .  A
C2830     Br2831   1.929       .  S
C2835      C2836   1.409       .  A
C2835      C2840   1.408       .  A
C2835     Br2842   1.930       .  S
C2836      C2837   1.410       .  A
C2837      C2838   1.408       .  A
C2837     Br2844   1.931       .  S
C2838      C2839   1.411       .  A
C2838     Br2843   1.931       .  S
C2839      C2840   1.411       .  A
C2840     Br2841   1.930       .  S
C2845      C2846   1.412       .  A
C2845      C2850   1.406       .  A
C2845     Br2852   1.932       .  S
C2846      C2847   1.412       .  A
C2847      C2848   1.407       .  A
C2847     Br2854   1.932       .  S
C2848      C2849   1.410       .  A
C2848     Br2853   1.932       .  S
C2849      C2850   1.410       .  A
C2850     Br2851   1.933       .  S
C2855      C2856   1.414       .  A
C2855      C2860   1.407       .  A
C2855     Br2862   1.932       .  S
C2856      C2857   1.414       .  A
C2857      C2858   1.406       .  A
C2857     Br2864   1.932       .  S
C2858      C2859   1.406       .  A
C2858     Br2863   1.931       .  S
C2859      C2860   1.406       .  A
C2860     Br2861   1.931       .  S
C2865      C2866   1.412       .  A
C2865      C2870   1.407       .  A
C2865     Br2872   1.933       .  S
C2866      C2867   1.412       .  A
C2867      C2868   1.405       .  A
C2867     Br2874   1.932       .  S
C2868      C2869   1.410       .  A
C2868     Br2873   1.933       .  S
C2869      C2870   1.412       .  A
C2870     Br2871   1.932       .  S
C2875      C2876   1.412       .  A
C2875      C2880   1.409       .  A
C2875     Br2882   1.932       .  S
C2876      C2877   1.412       .  A
C2877      C2878   1.407       .  A
C2877     Br2884   1.932       .  S
C2878      C2879   1.412       .  A
C2878     Br2883   1.932       .  S
C2879      C2880   1.412       .  A
C2880     Br2881   1.933       .  S
C2885      C2886   1.412       .  A
C2885      C2890   1.406       .  A
C2885     Br2892   1.931       .  S
C2886      C2887   1.411       .  A
C2887      C2888   1.407       .  A
C2887     Br2894   1.931       .  S
C2888      C2889   1.409       .  A
C2888     Br2893   1.931       .  S
C2889      C2890   1.408       .  A
C2890     Br2891   1.931       .  S
C2895      C2896   1.409       .  A
C2895      C2900   1.407       .  A
C2895     Br2902   1.929       .  S
C2896      C2897   1.409       .  A
C2897      C2898   1.407       .  A
C2897     Br2904   1.929       .  S
C2898      C2899   1.408       .  A
C2898     Br2903   1.930       .  S
C2899      C2900   1.408       .  A
C2900     Br2901   1.929       .  S
C2905      C2906   1.411       .  A
C2905      C2910   1.408       .  A
C2905     Br2912   1.932       .  S
C2906      C2907   1.411       .  A
C2907      C2908   1.407       .  A
C2907     Br2914   1.932       .  S
C2908      C2909   1.413       .  A
C2908     Br2913   1.933       .  S
C2909      C2910   1.413       .  A
C2910     Br2911   1.932       .  S
C2915      C2916   1.415       .  A
C2915      C2920   1.408       .  A
C2915     Br2922   1.931       .  S
C2916      C2917   1.414       .  A
C2917      C2918   1.406       .  A
C2917     Br2924   1.932       .  S
C2918      C2919   1.408       .  A
C2918     Br2923   1.932       .  S
C2919      C2920   1.407       .  A
C2920     Br2921   1.932       .  S
C2925      C2926   1.411       .  A
C2925      C2930   1.409       .  A
C2925     Br2932   1.929       .  S
C2926      C2927   1.411       .  A
C2927      C2928   1.409       .  A
C2927     Br2934   1.929       .  S
C2928      C2929   1.409       .  A
C2928     Br2933   1.930       .  S
C2929      C2930   1.409       .  A
C2930     Br2931   1.930       .  S
C2935      C2936   1.408       .  A
C2935      C2940   1.409       .  A
C2935     Br2942   1.929       .  S
C2936      C2937   1.409       .  A
C2937      C2938   1.408       .  A
C2937     Br2944   1.930       .  S
C2938      C2939   1.410       .  A
C2938     Br2943   1.930       .  S
C2939      C2940   1.411       .  A
C2940     Br2941   1.930       .  S
C2945      C2946   1.412       .  A
C2945      C2950   1.408   1_565  A
C2945     Br2952   1.933       .  S
C2946      C2947   1.412       .  A
C2947      C2948   1.411   1_565  A
C2947     Br2954   1.931       .  S
C2948      C2949   1.413       .  A
C2948     Br2953   1.931       .  S
C2949      C2950   1.414       .  A
C2950     Br2951   1.934       .  S
C2955      C2956   1.416       .  A
C2955      C2960   1.410       .  A
C2955     Br2962   1.932       .  S
C2956      C2957   1.413       .  A
C2957      C2958   1.407       .  A
C2957     Br2964   1.933       .  S
C2958      C2959   1.412       .  A
C2958     Br2963   1.933       .  S
C2959      C2960   1.412       .  A
C2960     Br2961   1.933       .  S
C2965      C2966   1.414       .  A
C2965      C2970   1.410       .  A
C2965     Br2972   1.932       .  S
C2966      C2967   1.413       .  A
C2967      C2968   1.408       .  A
C2967     Br2974   1.933       .  S
C2968      C2969   1.412       .  A
C2968     Br2973   1.933       .  S
C2969      C2970   1.411       .  A
C2970     Br2971   1.931       .  S
C2975      C2976   1.411       .  A
C2975      C2980   1.409       .  A
C2975     Br2982   1.929       .  S
C2976      C2977   1.412       .  A
C2977      C2978   1.408       .  A
C2977     Br2984   1.931       .  S
C2978      C2979   1.409       .  A
C2978     Br2983   1.931       .  S
C2979      C2980   1.409       .  A
C2980     Br2981   1.930       .  S
C2985      C2986   1.413       .  A
C2985      C2990   1.409   1_565  A
C2985     Br2992   1.931       .  S
C2986      C2987   1.414       .  A
C2987      C2988   1.409   1_565  A
C2987     Br2994   1.932       .  S
C2988      C2989   1.411       .  A
C2988     Br2993   1.931       .  S
C2989      C2990   1.411       .  A
C2990     Br2991   1.931       .  S
C2995      C2996   1.413       .  A
C2995      C3000   1.409       .  A
C2995     Br3002   1.932       .  S
C2996      C2997   1.412       .  A
C2997      C2998   1.409       .  A
C2997     Br3004   1.933       .  S
C2998      C2999   1.414       .  A
C2998     Br3003   1.933       .  S
C2999      C3000   1.413       .  A
C3000     Br3001   1.933       .  S
C3005      C3006   1.412       .  A
C3005      C3010   1.409       .  A
C3005     Br3012   1.930       .  S
C3006      C3007   1.412       .  A
C3007      C3008   1.408       .  A
C3007     Br3014   1.931       .  S
C3008      C3009   1.409       .  A
C3008     Br3013   1.930       .  S
C3009      C3010   1.411       .  A
C3010     Br3011   1.931       .  S
C3015      C3016   1.409       .  A
C3015      C3020   1.409       .  A
C3015     Br3022   1.932       .  S
C3016      C3017   1.410       .  A
C3017      C3018   1.408       .  A
C3017     Br3024   1.932       .  S
C3018      C3019   1.414       .  A
C3018     Br3023   1.933       .  S
C3019      C3020   1.415       .  A
C3020     Br3021   1.931       .  S
C3025      C3026   1.410       .  A
C3025      C3030   1.409       .  A
C3025     Br3032   1.930       .  S
C3026      C3027   1.409       .  A
C3027      C3028   1.409       .  A
C3027     Br3034   1.930       .  S
C3028      C3029   1.411       .  A
C3028     Br3033   1.930       .  S
C3029      C3030   1.410       .  A
C3030     Br3031   1.930       .  S
C3035      C3036   1.414       .  A
C3035      C3040   1.410       .  A
C3035     Br3042   1.932       .  S
C3036      C3037   1.414       .  A
C3037      C3038   1.410       .  A
C3037     Br3044   1.932       .  S
C3038      C3039   1.411       .  A
C3038     Br3043   1.931       .  S
C3039      C3040   1.412       .  A
C3040     Br3041   1.932       .  S
C3045      C3046   1.410       .  A
C3045      C3050   1.409       .  A
C3045     Br3052   1.930       .  S
C3046      C3047   1.410       .  A
C3047      C3048   1.409       .  A
C3047     Br3054   1.930       .  S
C3048      C3049   1.410       .  A
C3048     Br3053   1.930       .  S
C3049      C3050   1.410       .  A
C3050     Br3051   1.929       .  S
C3055      C3056   1.412       .  A
C3055      C3060   1.412       .  A
C3055     Br3062   1.931       .  S
C3056      C3057   1.411       .  A
C3057      C3058   1.408       .  A
C3057     Br3064   1.933       .  S
C3058      C3059   1.415       .  A
C3058     Br3063   1.933       .  S
C3059      C3060   1.413       .  A
C3060     Br3061   1.931       .  S
C3065      C3066   1.411       .  A
C3065      C3070   1.409       .  A
C3065     Br3072   1.929       .  S
C3066      C3067   1.412       .  A
C3067      C3068   1.410       .  A
C3067     Br3074   1.929       .  S
C3068      C3069   1.409       .  A
C3068     Br3073   1.931       .  S
C3069      C3070   1.408       .  A
C3070     Br3071   1.930       .  S
C3075      C3076   1.413       .  A
C3075      C3080   1.411       .  A
C3075     Br3082   1.931       .  S
C3076      C3077   1.414       .  A
C3077      C3078   1.409       .  A
C3077     Br3084   1.932       .  S
C3078      C3079   1.412       .  A
C3078     Br3083   1.933       .  S
C3079      C3080   1.412       .  A
C3080     Br3081   1.931       .  S
C3085      C3086   1.413       .  A
C3085      C3090   1.409       .  A
C3085     Br3092   1.932       .  S
C3086      C3087   1.412       .  A
C3087      C3088   1.410       .  A
C3087     Br3094   1.931       .  S
C3088      C3089   1.413       .  A
C3088     Br3093   1.932       .  S
C3089      C3090   1.411       .  A
C3090     Br3091   1.931       .  S
C3095      C3096   1.412       .  A
C3095      C3100   1.410       .  A
C3095     Br3102   1.931       .  S
C3096      C3097   1.413       .  A
C3097      C3098   1.410       .  A
C3097     Br3104   1.932       .  S
C3098      C3099   1.412       .  A
C3098     Br3103   1.932       .  S
C3099      C3100   1.412       .  A
C3100     Br3101   1.932       .  S
C3105      C3106   1.411       .  A
C3105      C3110   1.410       .  A
C3105     Br3112   1.932       .  S
C3106      C3107   1.410       .  A
C3107      C3108   1.410       .  A
C3107     Br3114   1.932       .  S
C3108      C3109   1.414       .  A
C3108     Br3113   1.931       .  S
C3109      C3110   1.415       .  A
C3110     Br3111   1.932       .  S
C3115      C3116   1.413       .  A
C3115      C3120   1.410       .  A
C3115     Br3122   1.931       .  S
C3116      C3117   1.412       .  A
C3117      C3118   1.409       .  A
C3117     Br3124   1.931       .  S
C3118      C3119   1.409       .  A
C3118     Br3123   1.930       .  S
C3119      C3120   1.409       .  A
C3120     Br3121   1.931       .  S
C3125      C3126   1.411       .  A
C3125      C3130   1.410       .  A
C3125     Br3132   1.932       .  S
C3126      C3127   1.411       .  A
C3127      C3128   1.408       .  A
C3127     Br3134   1.932       .  S
C3128      C3129   1.414       .  A
C3128     Br3133   1.933       .  S
C3129      C3130   1.414       .  A
C3130     Br3131   1.931       .  S
C3135      C3136   1.410       .  A
C3135      C3140   1.409       .  A
C3135     Br3142   1.930       .  S
C3136      C3137   1.411       .  A
C3137      C3138   1.410       .  A
C3137     Br3144   1.930       .  S
C3138      C3139   1.410       .  A
C3138     Br3143   1.930       .  S
C3139      C3140   1.410       .  A
C3140     Br3141   1.930       .  S
C3145      C3146   1.413       .  A
C3145      C3150   1.408       .  A
C3145     Br3152   1.932       .  S
C3146      C3147   1.411       .  A
C3147      C3148   1.409       .  A
C3147     Br3154   1.932       .  S
C3148      C3149   1.412       .  A
C3148     Br3153   1.931       .  S
C3149      C3150   1.412       .  A
C3150     Br3151   1.933       .  S
C3155      C3156   1.411       .  A
C3155      C3160   1.410       .  A
C3155     Br3162   1.930       .  S
C3156      C3157   1.411       .  A
C3157      C3158   1.408       .  A
C3157     Br3164   1.933       .  S
C3158      C3159   1.414       .  A
C3158     Br3163   1.933       .  S
C3159      C3160   1.413       .  A
C3160     Br3161   1.931       .  S
C3165      C3166   1.409       .  A
C3165      C3170   1.408       .  A
C3165     Br3172   1.931       .  S
C3166      C3167   1.408       .  A
C3167      C3168   1.408       .  A
C3167     Br3174   1.930       .  S
C3168      C3169   1.411       .  A
C3168     Br3173   1.930       .  S
C3169      C3170   1.412       .  A
C3170     Br3171   1.931       .  S
C3175      C3176   1.413       .  A
C3175      C3180   1.407       .  A
C3175     Br3182   1.934       .  S
C3176      C3177   1.413       .  A
C3177      C3178   1.409       .  A
C3177     Br3184   1.931       .  S
C3178      C3179   1.412       .  A
C3178     Br3183   1.932       .  S
C3179      C3180   1.412       .  A
C3180     Br3181   1.932       .  S
C3185      C3186   1.411       .  A
C3185      C3190   1.409       .  A
C3185     Br3192   1.931       .  S
C3186      C3187   1.411       .  A
C3187      C3188   1.405       .  A
C3187     Br3194   1.934       .  S
C3188      C3189   1.412       .  A
C3188     Br3193   1.933       .  S
C3189      C3190   1.413       .  A
C3190     Br3191   1.932       .  S
C3195      C3196   1.409       .  A
C3195      C3200   1.408       .  A
C3195     Br3202   1.932       .  S
C3196      C3197   1.411       .  A
C3197      C3198   1.407       .  A
C3197     Br3204   1.933       .  S
C3198      C3199   1.414       .  A
C3198     Br3203   1.933       .  S
C3199      C3200   1.414       .  A
C3200     Br3201   1.931       .  S
C3205      C3206   1.410       .  A
C3205      C3210   1.408       .  A
C3205     Br3212   1.929       .  S
C3206      C3207   1.410       .  A
C3207      C3208   1.406       .  A
C3207     Br3214   1.931       .  S
C3208      C3209   1.410       .  A
C3208     Br3213   1.931       .  S
C3209      C3210   1.409       .  A
C3210     Br3211   1.930       .  S
C3215      C3216   1.410       .  A
C3215      C3220   1.409       .  A
C3215     Br3222   1.932       .  S
C3216      C3217   1.410       .  A
C3217      C3218   1.409       .  A
C3217     Br3224   1.931       .  S
C3218      C3219   1.413       .  A
C3218     Br3223   1.932       .  S
C3219      C3220   1.414       .  A
C3220     Br3221   1.932       .  S
C3225      C3226   1.412       .  A
C3225      C3230   1.409       .  A
C3225     Br3232   1.932       .  S
C3226      C3227   1.411       .  A
C3227      C3228   1.408       .  A
C3227     Br3234   1.932       .  S
C3228      C3229   1.414       .  A
C3228     Br3233   1.932       .  S
C3229      C3230   1.413       .  A
C3230     Br3231   1.932       .  S
C3235      C3236   1.412       .  A
C3235      C3240   1.408       .  A
C3235     Br3242   1.932       .  S
C3236      C3237   1.411       .  A
C3237      C3238   1.407       .  A
C3237     Br3244   1.931       .  S
C3238      C3239   1.410       .  A
C3238     Br3243   1.932       .  S
C3239      C3240   1.410       .  A
C3240     Br3241   1.931       .  S
C3245      C3246   1.407       .  A
C3245      C3250   1.406       .  A
C3245     Br3252   1.930       .  S
C3246      C3247   1.409       .  A
C3247      C3248   1.405       .  A
C3247     Br3254   1.931       .  S
C3248      C3249   1.409       .  A
C3248     Br3253   1.931       .  S
C3249      C3250   1.411       .  A
C3250     Br3251   1.931       .  S
C3255      C3256   1.410       .  A
C3255      C3260   1.408       .  A
C3255     Br3262   1.931       .  S
C3256      C3257   1.411       .  A
C3257      C3258   1.409       .  A
C3257     Br3264   1.931       .  S
C3258      C3259   1.412       .  A
C3258     Br3263   1.931       .  S
C3259      C3260   1.410       .  A
C3260     Br3261   1.930       .  S
C3265      C3266   1.408       .  A
C3265      C3270   1.409       .  A
C3265     Br3272   1.930       .  S
C3266      C3267   1.409       .  A
C3267      C3268   1.409       .  A
C3267     Br3274   1.929       .  S
C3268      C3269   1.410       .  A
C3268     Br3273   1.929       .  S
C3269      C3270   1.411       .  A
C3270     Br3271   1.930       .  S
C3275      C3276   1.411       .  A
C3275      C3280   1.407       .  A
C3275     Br3282   1.933       .  S
C3276      C3277   1.411       .  A
C3277      C3278   1.410       .  A
C3277     Br3284   1.931       .  S
C3278      C3279   1.414       .  A
C3278     Br3283   1.932       .  S
C3279      C3280   1.412       .  A
C3280     Br3281   1.932       .  S
C3285      C3286   1.414       .  A
C3285      C3290   1.406       .  A
C3285     Br3292   1.934       .  S
C3286      C3287   1.412       .  A
C3287      C3288   1.410       .  A
C3287     Br3294   1.930       .  S
C3288      C3289   1.412       .  A
C3288     Br3293   1.931       .  S
C3289      C3290   1.412       .  A
C3290     Br3291   1.934       .  S
C3295      C3296   1.412       .  A
C3295      C3300   1.409       .  A
C3295     Br3302   1.932       .  S
C3296      C3297   1.412       .  A
C3297      C3298   1.408       .  A
C3297     Br3304   1.932       .  S
C3298      C3299   1.413       .  A
C3298     Br3303   1.932       .  S
C3299      C3300   1.412       .  A
C3300     Br3301   1.931       .  S
C3305      C3306   1.414       .  A
C3305      C3310   1.411       .  A
C3305     Br3312   1.931       .  S
C3306      C3307   1.413       .  A
C3307      C3308   1.410       .  A
C3307     Br3314   1.931       .  S
C3308      C3309   1.410       .  A
C3308     Br3313   1.931       .  S
C3309      C3310   1.410       .  A
C3310     Br3311   1.930       .  S
C3315      C3316   1.408       .  A
C3315      C3320   1.408       .  A
C3315     Br3322   1.930       .  S
C3316      C3317   1.410       .  A
C3317      C3318   1.409       .  A
C3317     Br3324   1.931       .  S
C3318      C3319   1.412       .  A
C3318     Br3323   1.931       .  S
C3319      C3320   1.411       .  A
C3320     Br3321   1.930       .  S
C3325      C3326   1.409       .  A
C3325      C3330   1.409       .  A
C3325     Br3332   1.931       .  S
C3326      C3327   1.409       .  A
C3327      C3328   1.411       .  A
C3327     Br3334   1.930       .  S
C3328      C3329   1.414       .  A
C3328     Br3333   1.930       .  S
C3329      C3330   1.415       .  A
C3330     Br3331   1.931       .  S
C3335      C3336   1.412       .  A
C3335      C3340   1.408       .  A
C3335     Br3342   1.933       .  S
C3336      C3337   1.411       .  A
C3337      C3338   1.409       .  A
C3337     Br3344   1.932       .  S
C3338      C3339   1.414       .  A
C3338     Br3343   1.931       .  S
C3339      C3340   1.415       .  A
C3340     Br3341   1.934       .  S
C3345      C3346   1.412       .  A
C3345      C3350   1.410       .  A
C3345     Br3352   1.932       .  S
C3346      C3347   1.413       .  A
C3347      C3348   1.409       .  A
C3347     Br3354   1.932       .  S
C3348      C3349   1.413       .  A
C3348     Br3353   1.933       .  S
C3349      C3350   1.411       .  A
C3350     Br3351   1.930       .  S
C3355      C3356   1.409       .  A
C3355      C3360   1.405       .  A
C3355     Br3362   1.932       .  S
C3356      C3357   1.411       .  A
C3357      C3358   1.408       .  A
C3357     Br3364   1.931       .  S
C3358      C3359   1.412       .  A
C3358     Br3363   1.932       .  S
C3359      C3360   1.411       .  A
C3360     Br3361   1.931       .  S
C3365      C3366   1.412       .  A
C3365      C3370   1.409       .  A
C3365     Br3372   1.933       .  S
C3366      C3367   1.410       .  A
C3367      C3368   1.408       .  A
C3367     Br3374   1.931       .  S
C3368      C3369   1.411       .  A
C3368     Br3373   1.931       .  S
C3369      C3370   1.412       .  A
C3370     Br3371   1.932       .  S
C3375      C3376   1.410       .  A
C3375      C3380   1.409       .  A
C3375     Br3382   1.933       .  S
C3376      C3377   1.409       .  A
C3377      C3378   1.410       .  A
C3377     Br3384   1.931       .  S
C3378      C3379   1.415       .  A
C3378     Br3383   1.931       .  S
C3379      C3380   1.415       .  A
C3380     Br3381   1.931       .  S
C3385      C3386   1.412       .  A
C3385      C3390   1.408       .  A
C3385     Br3392   1.931       .  S
C3386      C3387   1.412       .  A
C3387      C3388   1.408       .  A
C3387     Br3394   1.930       .  S
C3388      C3389   1.407       .  A
C3388     Br3393   1.930       .  S
C3389      C3390   1.408       .  A
C3390     Br3391   1.930       .  S
C3395      C3396   1.409       .  A
C3395      C3400   1.409       .  A
C3395     Br3402   1.931       .  S
C3396      C3397   1.410       .  A
C3397      C3398   1.406       .  A
C3397     Br3404   1.932       .  S
C3398      C3399   1.412       .  A
C3398     Br3403   1.933       .  S
C3399      C3400   1.413       .  A
C3400     Br3401   1.931       .  S
C3405      C3406   1.412       .  A
C3405      C3410   1.407       .  A
C3405     Br3412   1.932       .  S
C3406      C3407   1.413       .  A
C3407      C3408   1.409       .  A
C3407     Br3414   1.931       .  S
C3408      C3409   1.411       .  A
C3408     Br3413   1.932       .  S
C3409      C3410   1.410       .  A
C3410     Br3411   1.932       .  S
C3415      C3416   1.410       .  A
C3415      C3420   1.406       .  A
C3415     Br3422   1.931       .  S
C3416      C3417   1.409       .  A
C3417      C3418   1.405       .  A
C3417     Br3424   1.930       .  S
C3418      C3419   1.407       .  A
C3418     Br3423   1.929       .  S
C3419      C3420   1.409       .  A
C3420     Br3421   1.931       .  S
C3425      C3426   1.409       .  A
C3425      C3430   1.406       .  A
C3425     Br3432   1.933       .  S
C3426      C3427   1.410       .  A
C3427      C3428   1.408       .  A
C3427     Br3434   1.932       .  S
C3428      C3429   1.414       .  A
C3428     Br3433   1.933       .  S
C3429      C3430   1.415       .  A
C3430     Br3431   1.932       .  S
C3435      C3436   1.411       .  A
C3435      C3440   1.407       .  A
C3435     Br3442   1.931       .  S
C3436      C3437   1.410       .  A
C3437      C3438   1.406       .  A
C3437     Br3444   1.930       .  S
C3438      C3439   1.408       .  A
C3438     Br3443   1.930       .  S
C3439      C3440   1.408       .  A
C3440     Br3441   1.930       .  S
C3445      C3446   1.412       .  A
C3445      C3450   1.409       .  A
C3445     Br3452   1.930       .  S
C3446      C3447   1.412       .  A
C3447      C3448   1.410       .  A
C3447     Br3454   1.930       .  S
C3448      C3449   1.409       .  A
C3448     Br3453   1.929       .  S
C3449      C3450   1.410       .  A
C3450     Br3451   1.931       .  S
C3455      C3456   1.411       .  A
C3455      C3460   1.409       .  A
C3455     Br3462   1.931       .  S
C3456      C3457   1.411       .  A
C3457      C3458   1.408       .  A
C3457     Br3464   1.933       .  S
C3458      C3459   1.413       .  A
C3458     Br3463   1.933       .  S
C3459      C3460   1.412       .  A
C3460     Br3461   1.932       .  S
C3465      C3466   1.411       .  A
C3465      C3470   1.408       .  A
C3465     Br3472   1.932       .  S
C3466      C3467   1.410       .  A
C3467      C3468   1.408       .  A
C3467     Br3474   1.931       .  S
C3468      C3469   1.411       .  A
C3468     Br3473   1.931       .  S
C3469      C3470   1.412       .  A
C3470     Br3471   1.933       .  S
C3475      C3476   1.409       .  A
C3475      C3480   1.408       .  A
C3475     Br3482   1.932       .  S
C3476      C3477   1.411       .  A
C3477      C3478   1.410       .  A
C3477     Br3484   1.932       .  S
C3478      C3479   1.415       .  A
C3478     Br3483   1.932       .  S
C3479      C3480   1.416       .  A
C3480     Br3481   1.932       .  S
C3485      C3486   1.411       .  A
C3485      C3490   1.409       .  A
C3485     Br3492   1.931       .  S
C3486      C3487   1.411       .  A
C3487      C3488   1.409       .  A
C3487     Br3494   1.931       .  S
C3488      C3489   1.410       .  A
C3488     Br3493   1.930       .  S
C3489      C3490   1.412       .  A
C3490     Br3491   1.931       .  S
C3495      C3496   1.412       .  A
C3495      C3500   1.405       .  A
C3495     Br3502   1.933       .  S
C3496      C3497   1.412       .  A
C3497      C3498   1.408       .  A
C3497     Br3504   1.931       .  S
C3498      C3499   1.411       .  A
C3498     Br3503   1.932       .  S
C3499      C3500   1.410       .  A
C3500     Br3501   1.933       .  S
C3505      C3506   1.410       .  A
C3505      C3510   1.409       .  A
C3505     Br3512   1.931       .  S
C3506      C3507   1.411       .  A
C3507      C3508   1.406       .  A
C3507     Br3514   1.934       .  S
C3508      C3509   1.413       .  A
C3508     Br3513   1.934       .  S
C3509      C3510   1.411       .  A
C3510     Br3511   1.930       .  S
C3515      C3516   1.411       .  A
C3515      C3520   1.409       .  A
C3515     Br3522   1.931       .  S
C3516      C3517   1.410       .  A
C3517      C3518   1.409       .  A
C3517     Br3524   1.930       .  S
C3518      C3519   1.411       .  A
C3518     Br3523   1.931       .  S
C3519      C3520   1.411       .  A
C3520     Br3521   1.931       .  S
C3525      C3526   1.414       .  A
C3525      C3530   1.408   1_565  A
C3525     Br3532   1.934       .  S
C3526      C3527   1.413       .  A
C3527      C3528   1.410   1_565  A
C3527     Br3534   1.932       .  S
C3528      C3529   1.411       .  A
C3528     Br3533   1.931       .  S
C3529      C3530   1.412       .  A
C3530     Br3531   1.934       .  S
C3535      C3536   1.409       .  A
C3535      C3540   1.409       .  A
C3535     Br3542   1.929       .  S
C3536      C3537   1.410       .  A
C3537      C3538   1.408       .  A
C3537     Br3544   1.931       .  S
C3538      C3539   1.410       .  A
C3538     Br3543   1.931       .  S
C3539      C3540   1.410       .  A
C3540     Br3541   1.930       .  S
C3545      C3546   1.412       .  A
C3545      C3550   1.409       .  A
C3545     Br3552   1.932       .  S
C3546      C3547   1.411       .  A
C3547      C3548   1.408       .  A
C3547     Br3554   1.933       .  S
C3548      C3549   1.414       .  A
C3548     Br3553   1.933       .  S
C3549      C3550   1.413       .  A
C3550     Br3551   1.933       .  S
C3555      C3556   1.411       .  A
C3555      C3560   1.408       .  A
C3555     Br3562   1.930       .  S
C3556      C3557   1.410       .  A
C3557      C3558   1.411       .  A
C3557     Br3564   1.929       .  S
C3558      C3559   1.409       .  A
C3558     Br3563   1.928       .  S
C3559      C3560   1.409       .  A
C3560     Br3561   1.930       .  S
C3565      C3566   1.411       .  A
C3565      C3570   1.409       .  A
C3565     Br3572   1.931       .  S
C3566      C3567   1.413       .  A
C3567      C3568   1.410       .  A
C3567     Br3574   1.932       .  S
C3568      C3569   1.412       .  A
C3568     Br3573   1.931       .  S
C3569      C3570   1.412       .  A
C3570     Br3571   1.931       .  S
C3575      C3576   1.410       .  A
C3575      C3580   1.408       .  A
C3575     Br3582   1.930       .  S
C3576      C3577   1.409       .  A
C3577      C3578   1.408       .  A
C3577     Br3584   1.929       .  S
C3578      C3579   1.409       .  A
C3578     Br3583   1.929       .  S
C3579      C3580   1.409       .  A
C3580     Br3581   1.929       .  S
C3585      C3586   1.412       .  A
C3585      C3590   1.407       .  A
C3585     Br3592   1.932       .  S
C3586      C3587   1.414       .  A
C3587      C3588   1.408       .  A
C3587     Br3594   1.932       .  S
C3588      C3589   1.409       .  A
C3588     Br3593   1.931       .  S
C3589      C3590   1.411       .  A
C3590     Br3591   1.932       .  S
C3595      C3596   1.411       .  A
C3595      C3600   1.408       .  A
C3595     Br3602   1.930       .  S
C3596      C3597   1.409       .  A
C3597      C3598   1.408       .  A
C3597     Br3604   1.929       .  S
C3598      C3599   1.410       .  A
C3598     Br3603   1.930       .  S
C3599      C3600   1.408       .  A
C3600     Br3601   1.929       .  S
C3605      C3606   1.414       .  A
C3605      C3610   1.408       .  A
C3605     Br3612   1.934       .  S
C3606      C3607   1.413       .  A
C3607      C3608   1.413       .  A
C3607     Br3614   1.932       .  S
C3608      C3609   1.415       .  A
C3608     Br3613   1.931       .  S
C3609      C3610   1.414       .  A
C3610     Br3611   1.934       .  S
C3615      C3616   1.416       .  A
C3615      C3620   1.409       .  A
C3615     Br3622   1.931       .  S
C3616      C3617   1.414       .  A
C3617      C3618   1.407   1_565  A
C3617     Br3624   1.933       .  S
C3618      C3619   1.409       .  A
C3618     Br3623   1.932       .  S
C3619      C3620   1.410   1_545  A
C3620     Br3621   1.933       .  S
C3625      C3626   1.411       .  A
C3625      C3630   1.409       .  A
C3625     Br3632   1.930       .  S
C3626      C3627   1.411       .  A
C3627      C3628   1.410       .  A
C3627     Br3634   1.929       .  S
C3628      C3629   1.410       .  A
C3628     Br3633   1.930       .  S
C3629      C3630   1.411       .  A
C3630     Br3631   1.931       .  S
C3635      C3636   1.410       .  A
C3635      C3640   1.406       .  A
C3635     Br3642   1.932       .  S
C3636      C3637   1.408       .  A
C3637      C3638   1.406       .  A
C3637     Br3644   1.930       .  S
C3638      C3639   1.411       .  A
C3638     Br3643   1.931       .  S
C3639      C3640   1.409       .  A
C3640     Br3641   1.930       .  S
C3645      C3646   1.413       .  A
C3645      C3650   1.410       .  A
C3645     Br3652   1.931       .  S
C3646      C3647   1.413       .  A
C3647      C3648   1.408       .  A
C3647     Br3654   1.933       .  S
C3648      C3649   1.412       .  A
C3648     Br3653   1.933       .  S
C3649      C3650   1.412       .  A
C3650     Br3651   1.931       .  S
C3655      C3656   1.411       .  A
C3655      C3660   1.408       .  A
C3655     Br3662   1.931       .  S
C3656      C3657   1.412       .  A
C3657      C3658   1.409       .  A
C3657     Br3664   1.932       .  S
C3658      C3659   1.411       .  A
C3658     Br3663   1.932       .  S
C3659      C3660   1.411       .  A
C3660     Br3661   1.931       .  S
C3665      C3666   1.413       .  A
C3665      C3670   1.408   1_655  A
C3665     Br3672   1.933       .  S
C3666      C3667   1.411       .  A
C3667      C3668   1.410   1_655  A
C3667     Br3674   1.931       .  S
C3668      C3669   1.412       .  A
C3668     Br3673   1.931       .  S
C3669      C3670   1.412       .  A
C3670     Br3671   1.933       .  S
C3675      C3676   1.409       .  A
C3675      C3680   1.407       .  A
C3675     Br3682   1.931       .  S
C3676      C3677   1.413       .  A
C3677      C3678   1.408       .  A
C3677     Br3684   1.932       .  S
C3678      C3679   1.410       .  A
C3678     Br3683   1.931       .  S
C3679      C3680   1.412       .  A
C3680     Br3681   1.932       .  S
C3685      C3686   1.413       .  A
C3685      C3690   1.407       .  A
C3685     Br3692   1.932       .  S
C3686      C3687   1.413       .  A
C3687      C3688   1.408       .  A
C3687     Br3694   1.932       .  S
C3688      C3689   1.412       .  A
C3688     Br3693   1.931       .  S
C3689      C3690   1.411       .  A
C3690     Br3691   1.934       .  S
C3695      C3696   1.414       .  A
C3695      C3700   1.409       .  A
C3695     Br3702   1.931       .  S
C3696      C3697   1.414       .  A
C3697      C3698   1.409       .  A
C3697     Br3704   1.931       .  S
C3698      C3699   1.409       .  A
C3698     Br3703   1.931       .  S
C3699      C3700   1.408       .  A
C3700     Br3701   1.931       .  S
C3705      C3706   1.413       .  A
C3705      C3710   1.408       .  A
C3705     Br3712   1.931       .  S
C3706      C3707   1.415       .  A
C3707      C3708   1.409       .  A
C3707     Br3714   1.933       .  S
C3708      C3709   1.412       .  A
C3708     Br3713   1.933       .  S
C3709      C3710   1.410       .  A
C3710     Br3711   1.931       .  S
C3715      C3716   1.408       .  A
C3715      C3720   1.408       .  A
C3715     Br3722   1.931       .  S
C3716      C3717   1.410       .  A
C3717      C3718   1.408       .  A
C3717     Br3724   1.932       .  S
C3718      C3719   1.413       .  A
C3718     Br3723   1.931       .  S
C3719      C3720   1.413       .  A
C3720     Br3721   1.931       .  S
C3725      C3726   1.410       .  A
C3725      C3730   1.408       .  A
C3725     Br3732   1.932       .  S
C3726      C3727   1.410       .  A
C3727      C3728   1.410       .  A
C3727     Br3734   1.930       .  S
C3728      C3729   1.414       .  A
C3728     Br3733   1.932       .  S
C3729      C3730   1.413       .  A
C3730     Br3731   1.931       .  S
C3735      C3736   1.412       .  A
C3735      C3740   1.410   1_455  A
C3735     Br3742   1.932       .  S
C3736      C3737   1.412       .  A
C3737      C3738   1.409       .  A
C3737     Br3744   1.932       .  S
C3738      C3739   1.413   1_455  A
C3738     Br3743   1.933   1_455  S
C3739      C3740   1.413       .  A
C3740     Br3741   1.930       .  S
