geometry optimzed in LAMMPS
_audit_creation_date              2020-12-01 
_audit_creation_method            'lammps2cif' 
_symmetry_space_group_name_H-M    'P1' 
_symmetry_Int_Tables_number       1 
_symmetry_cell_setting            triclinic 
loop_ 
_symmetry_equiv_pos_as_xyz 
  x,y,z 
_cell_length_a                    34.31444646 
_cell_length_b                    34.30321320749467 
_cell_length_c                    34.31978945724921 
_cell_angle_alpha                 89.96244327144926 
_cell_angle_beta                  90.03333511460943 
_cell_angle_gamma                 90.06304669202834 
loop_ 
_atom_site_label 
_atom_site_type_symbol 
_atom_site_fract_x 
_atom_site_fract_y 
_atom_site_fract_z 
_atom_site_charge 
C1          C  0.32384567  0.23112526  0.53256402     0.04700
C2          C  0.34413754  0.19605318  0.53404537    -0.11400
C3          C  0.35335238  0.17668646  0.49953221     0.02200
C4          C  0.34369228  0.19365224  0.46374895    -0.10000
C5          C  0.32393605  0.22917596  0.46304648     0.04700
C6          C  0.31457080  0.24836381  0.49728205    -0.09400
H7          H  0.34932625  0.18219608  0.56200814     0.10300
H8          H  0.34891468  0.17812264  0.43674438     0.07800
H9          H  0.29609243  0.27405592  0.49653467     0.07700
C10         C  0.17477463  0.37801573  0.45822394     0.04700
C11         C  0.19233209  0.36603631  0.49409413    -0.11400
C12         C  0.17574419  0.37610030  0.53095271     0.02200
C13         C  0.14115963  0.39856364  0.53120389    -0.10000
C14         C  0.12260365  0.41075533  0.49633838     0.04700
C15         C  0.13991550  0.40022866  0.46019502    -0.09400
H16         H  0.21865426  0.34866204  0.49332677     0.10300
H17         H  0.12824885  0.40617006  0.55898555     0.07800
H18         H  0.12609242  0.40928895  0.43329760     0.07700
C19         C  0.16578844  0.51356650  0.34431767     0.04700
C20         C  0.18459023  0.54858831  0.33722567    -0.11400
C21         C  0.16697409  0.58308577  0.34866824     0.02200
C22         C  0.13170590  0.58271422  0.36898586    -0.10000
C23         C  0.11320261  0.54716294  0.37665006     0.04700
C24         C  0.13102580  0.51239528  0.36521172    -0.09400
H25         H  0.20990819  0.54933111  0.31823621     0.10300
H26         H  0.11718102  0.60998371  0.37555767     0.07800
H27         H  0.11589844  0.48481119  0.36867014     0.07700
C28         C  0.30917376  0.51430823  0.19256658     0.04700
C29         C  0.29901051  0.55093595  0.20944053    -0.11400
C30         C  0.31156958  0.58689056  0.19259253     0.02200
C31         C  0.33420282  0.58539031  0.15804086    -0.10000
C32         C  0.34468103  0.54946403  0.14037691     0.04700
C33         C  0.33210379  0.51438325  0.15830616    -0.09400
H34         H  0.28126550  0.55146042  0.23552481     0.10300
H35         H  0.34363899  0.61245611  0.14476472     0.07800
H36         H  0.33976875  0.48671744  0.14516434     0.07700
C37         C  0.49749244  0.22763660  0.32762139     0.04700
C38         C  0.46307695  0.24870900  0.32115700    -0.11400
C39         C  0.42702166  0.23394334  0.33416816     0.02200
C40         C  0.42599609  0.19755496  0.35405601    -0.10000
C41         C  0.46091612  0.17645212  0.36076378     0.04700
C42         C  0.49613387  0.19219978  0.34726779    -0.09400
H43         H  0.46419714  0.27594082  0.30512803     0.10300
H44         H  0.39839414  0.18572997  0.36381591     0.07800
H45         H  0.52319063  0.17641428  0.35142889     0.07700
C46         C  0.45972522  0.38724002  0.18913418     0.04700
C47         C  0.46117816  0.41209440  0.15723319    -0.11400
C48         C  0.49683773  0.42410555  0.14140020     0.02200
C49         C  0.53168072  0.41282774  0.16000791    -0.10000
C50         C  0.53031063  0.38902464  0.19360751     0.04700
C51         C  0.49418079  0.37586189  0.20776576    -0.09400
H52         H  0.43400234  0.41989061  0.14309104     0.10300
H53         H  0.55954555  0.42146579  0.14790506     0.07800
H54         H  0.49300457  0.35570053  0.23208596     0.07700
C55         C  0.14702094  0.35468257  0.95808958     0.04700
C56         C  0.12540137  0.38986226  0.95999178    -0.11400
C57         C  0.11536895  0.40743440  0.99609430     0.02200
C58         C  0.12759517  0.38882092  0.03099571    -0.10000
C59         C  0.14962970  0.35388489  0.03067452     0.04700
C60         C  0.15908136  0.33708011  0.99382696    -0.09400
H61         H  0.11634046  0.40366694  0.93307999     0.10300
H62         H  0.12035489  0.40191685  0.05878527     0.07800
H63         H  0.17605797  0.31049597  0.99295640     0.07700
C64         C  0.29318383  0.19734356  0.96202478     0.04700
C65         C  0.27477189  0.20683507  0.99672953    -0.11400
C66         C  0.29312733  0.19844502  0.03170390     0.02200
C67         C  0.32825266  0.17824771  0.03241782    -0.10000
C68         C  0.34706966  0.16913085  0.99752491     0.04700
C69         C  0.32902523  0.17800045  0.96204329    -0.09400
H70         H  0.24907597  0.22530879  0.99645054     0.10300
H71         H  0.34292765  0.17376190  0.06007825     0.07800
H72         H  0.34419806  0.17307844  0.93478329     0.07700
O73         O  0.10611611  0.34423725  0.74201359    -0.86600
C74         C  0.25845863  0.23840108  0.62638105     1.13500
O75         O  0.19329117  0.33140423  0.74425775    -1.34400
O76         O  0.17220480  0.20167073  0.67788743    -0.88100
O77         O  0.13389912  0.37398534  0.79309703    -0.88700
O78         O  0.17449560  0.28692799  0.82764801    -0.77600
O79         O  0.13894717  0.27754273  0.70218404    -0.99600
C80         C  0.24295367  0.20111106  0.79228282     1.23500
O81         O  0.25758414  0.29804124  0.77878925    -1.34500
Mn82       Mn  0.25099289  0.32198620  0.72030459     1.82100
O83         O  0.21054346  0.21823318  0.79611398    -0.76600
O84         O  0.22429653  0.17619615  0.70810168    -0.86000
C85         C  0.32685461  0.27793453  0.70369435     1.14600
C86         C  0.19015890  0.17370960  0.69441963     1.09300
O87         O  0.27658292  0.37805746  0.73268956    -0.77600
O88         O  0.22465137  0.26478600  0.71351674    -1.31300
O89         O  0.24963177  0.38072427  0.78851695    -0.96800
C90         C  0.28013973  0.26313743  0.86803815     1.08000
Mn91       Mn  0.26676625  0.21868532  0.71371568     1.48600
O92         O  0.26243957  0.29544123  0.86739144    -0.86000
Mn93       Mn  0.19284560  0.37762377  0.78619020     1.49600
O94         O  0.15894269  0.39415135  0.69095384    -0.89900
C95         C  0.12236492  0.25823351  0.72728843     1.21200
C96         C  0.17587067  0.42195419  0.70879779     1.13300
Mn97       Mn  0.19919610  0.27426045  0.77060593     1.81000
O98         O  0.31024674  0.25438232  0.72464252    -0.95000
Mn99       Mn  0.14848261  0.33447239  0.70056671     1.49300
C100        C  0.10552116  0.35809039  0.77608219     1.09800
Mn101      Mn  0.30413520  0.25684662  0.78106846     1.49900
C102        C  0.34634779  0.33200618  0.80442322     1.12700
O103        O  0.20228922  0.34182575  0.82989392    -1.00800
O104        O  0.27538327  0.22293160  0.65503974    -0.90500
C105        C  0.18090880  0.31832592  0.84593169     1.24000
O106        O  0.26702233  0.21537306  0.77044455    -1.01200
O107        O  0.22417562  0.25167023  0.62645407    -0.88600
O108        O  0.34581730  0.29991578  0.78639497    -0.88200
O109        O  0.18897144  0.41968635  0.74317623    -0.88200
Mn110      Mn  0.18192361  0.26146714  0.66784360     1.47900
O111        O  0.30870419  0.30935785  0.69699284    -0.76700
C112        C  0.27227168  0.39498257  0.76519900     1.17000
O113        O  0.14105218  0.25194079  0.75860310    -0.75400
O114        O  0.24024175  0.34427483  0.66192234    -0.75000
Mn115      Mn  0.25880433  0.33894038  0.82572346     1.51100
O116        O  0.29961760  0.24933089  0.84017894    -0.87400
O117        O  0.18391039  0.31837843  0.65848958    -0.94900
O118        O  0.31812573  0.34601994  0.82323162    -0.89900
C119        C  0.20941247  0.33767687  0.64247284     1.14800
C120        C  0.13415085  0.01387757  0.31330036     0.04700
C121        C  0.11305843  0.01246413  0.34791567    -0.11400
C122        C  0.10155481  0.04707085  0.36595482     0.02200
C123        C  0.10912625  0.08277679  0.34768037    -0.10000
C124        C  0.12964460  0.08345138  0.31252395     0.04700
C125        C  0.14138941  0.04906642  0.29481591    -0.09400
H126        H  0.10951146  0.98477234  0.36281466     0.10300
H127        H  0.10236653  0.10993203  0.36233594     0.07800
H128        H  0.16050106  0.05000111  0.26960468     0.07700
C129        C  0.28473704  0.01423982  0.16966394     0.04700
C130        C  0.26783024  0.05087390  0.17979068    -0.11400
C131        C  0.28492248  0.08685492  0.16760135     0.02200
C132        C  0.31965233  0.08536011  0.14520926    -0.10000
C133        C  0.33735460  0.04945109  0.13468834     0.04700
C134        C  0.31925695  0.01434848  0.14706265    -0.09400
H135        H  0.24157348  0.05138471  0.19728510     0.10300
H136        H  0.33305050  0.11244079  0.13599070     0.07800
H137        H  0.33242611  0.98669019  0.13942954     0.07700
O138        O  0.27135093  0.80090881  0.12607481    -0.86600
C139        C  0.17899826  0.67794235  0.28388239     1.13500
O140        O  0.26638593  0.80082710  0.21465564    -1.34400
O141        O  0.14104195  0.72318585  0.20029560    -0.88100
O142        O  0.30135625  0.85323798  0.15142399    -0.88700
O143        O  0.21991655  0.88351913  0.20146857    -0.77600
O144        O  0.21000709  0.75692346  0.16565075    -0.99600
C145        C  0.13269406  0.84235403  0.26774656     1.23500
O146        O  0.23508701  0.83247052  0.28110203    -1.34500
Mn147      Mn  0.26020993  0.77505786  0.27202415     1.82100
O148        O  0.15105275  0.84891598  0.23639661    -0.76600
O149        O  0.11330911  0.75889750  0.24725760    -0.86000
C150        C  0.21655038  0.75458476  0.34541112     1.14600
C151        C  0.11272587  0.74134286  0.21490322     1.09300
O152        O  0.31841147  0.78684753  0.29433440    -0.77600
O153        O  0.20176410  0.76701608  0.24835403    -1.31300
O154        O  0.32065399  0.84294374  0.26815101    -0.96800
C155        C  0.20196523  0.92068633  0.30709076     1.08000
Mn156      Mn  0.15537747  0.76512182  0.28985960     1.48600
O157        O  0.23633412  0.92014343  0.29387995    -0.86000
Mn158      Mn  0.31151879  0.84403857  0.21122748     1.49600
O159        O  0.32569678  0.75069135  0.17250419    -0.89900
C160        C  0.18788310  0.78058265  0.15114339     1.21200
C161        C  0.35422179  0.76774402  0.18813524     1.13300
Mn162      Mn  0.20880962  0.82534458  0.22404368     1.81000
O163        O  0.19254490  0.77640668  0.33102364    -0.95000
Mn164      Mn  0.26675858  0.75840396  0.16877413     1.49300
C165        C  0.28464435  0.83524698  0.12359137     1.09800
Mn166      Mn  0.19280367  0.83313057  0.32701327     1.49900
C167        C  0.26948084  0.85233687  0.37192681     1.12700
O168        O  0.27636218  0.88661085  0.22706703    -1.00800
O169        O  0.16034839  0.70612576  0.29817430    -0.90500
C170        C  0.25094528  0.90272056  0.20781192     1.24000
O171        O  0.14923997  0.82165519  0.29153222    -1.01200
O172        O  0.19580172  0.67826983  0.25108885    -0.88600
O173        O  0.23512247  0.83921096  0.36950281    -0.88200
O174        O  0.35366041  0.80194805  0.20180888    -0.88200
Mn175      Mn  0.20017888  0.71994785  0.20757770     1.47900
O176        O  0.24881226  0.75026301  0.32819246    -0.76700
C177        C  0.33713317  0.81810476  0.28779827     1.17000
O178        O  0.18356914  0.81304965  0.16807158    -0.75400
O179        O  0.28433879  0.71763671  0.25988811    -0.75000
Mn180      Mn  0.27814943  0.87790982  0.28404517     1.51100
O181        O  0.18450290  0.89197699  0.32198496    -0.87400
O182        O  0.25663161  0.71514702  0.20497590    -0.94900
O183        O  0.28783131  0.86819690  0.34383942    -0.89900
C184        C  0.27775029  0.69910239  0.22867925     1.14800
C185        C  0.96325592  0.21872230  0.31806522     0.04700
C186        C  0.96453884  0.19918912  0.35352019    -0.11400
C187        C  0.99966015  0.18541513  0.36912153     0.02200
C188        C  0.03454851  0.19171018  0.34777303    -0.10000
C189        C  0.03343494  0.21154346  0.31135226     0.04700
C190        C  0.99752260  0.22492422  0.29683991    -0.09400
H191        H  0.93749206  0.19528726  0.36939925     0.10300
H192        H  0.06212875  0.18168506  0.35939419     0.07800
H193        H  0.99638081  0.24091379  0.26958702     0.07700
C194        C  0.92970811  0.35327398  0.15555466     0.04700
C195        C  0.96579052  0.33910473  0.16872738    -0.11400
C196        C  0.00022420  0.35788788  0.15756975     0.02200
C197        C  0.99882336  0.39013054  0.13317117    -0.10000
C198        C  0.96320384  0.40580757  0.12094055     0.04700
C199        C  0.92835383  0.38695312  0.13185602    -0.09400
H200        H  0.96694920  0.31457130  0.18863573     0.10300
H201        H  0.02599980  0.40444769  0.12564246     0.07800
H202        H  0.90049914  0.39894478  0.12306135     0.07700
O203        O  0.82697815  0.24522020  0.31763309    -0.86600
C204        C  0.60529564  0.24176917  0.28129590     1.13500
O205        O  0.76398453  0.29756537  0.28054638    -1.34400
O206        O  0.68487093  0.17610729  0.24965670    -0.88100
O207        O  0.85306740  0.29873467  0.29072153    -0.88700
O208        O  0.81006890  0.28363899  0.19891114    -0.77600
O209        O  0.75158849  0.21352718  0.28912321    -0.99600
C210        C  0.71186148  0.25586769  0.14930369     1.23500
O211        O  0.73053769  0.33126072  0.21473009    -1.34500
Mn212      Mn  0.70661907  0.32253397  0.27245557     1.82100
O213        O  0.74309400  0.25011076  0.16733884    -0.76600
O214        O  0.65752198  0.20241370  0.19652350    -0.86000
C215        C  0.63216026  0.34121187  0.23150605     1.14600
C216        C  0.67117732  0.17353490  0.21550105     1.09300
O217        O  0.71807235  0.37824246  0.29624510    -0.77600
O218        O  0.69704193  0.26512834  0.24792281    -1.31300
O219        O  0.77355861  0.38160629  0.26913833    -0.96800
C220        C  0.76267333  0.35531987  0.12285112     1.08000
Mn221      Mn  0.65137832  0.26309481  0.20567823     1.48600
O222        O  0.78207401  0.36909135  0.15136171    -0.86000
Mn223      Mn  0.80957908  0.33985227  0.28285683     1.49600
O224        O  0.77614116  0.29503420  0.36945445    -0.89900
C225        C  0.77233649  0.19902158  0.26430957     1.21200
C226        C  0.78968495  0.32924930  0.37225057     1.13300
Mn227      Mn  0.75442927  0.27345530  0.22303915     1.81000
O228        O  0.64634557  0.32033740  0.20660427    -0.95000
Mn229      Mn  0.76664911  0.25459778  0.32546108     1.49300
C230        C  0.85562064  0.26431488  0.30368265     1.09800
Mn231      Mn  0.68755261  0.33431678  0.16990404     1.49900
C232        C  0.69886046  0.42349330  0.19092464     1.12700
O233        O  0.81471357  0.33926663  0.22564451    -1.00800
O234        O  0.60781312  0.25501382  0.24695162    -0.90500
C235        C  0.82875064  0.31456274  0.20443746     1.24000
O236        O  0.68749777  0.27706240  0.16396465    -1.01200
O237        O  0.63401920  0.22757431  0.30009911    -0.88600
O238        O  0.67935553  0.39499794  0.17717964    -0.88200
O239        O  0.80326340  0.34852488  0.34353338    -0.88200
Mn240      Mn  0.69441548  0.21980971  0.29046062     1.47900
O241        O  0.65085399  0.34660997  0.26244922    -0.76700
C242        C  0.74935970  0.39627460  0.29046828     1.17000
O243        O  0.77768085  0.21738949  0.23318020    -0.75400
O244        O  0.68351954  0.31186658  0.32846543    -0.75000
Mn245      Mn  0.77365163  0.37608916  0.21193238     1.51100
O246        O  0.72821298  0.34243696  0.12576923    -0.87400
O247        O  0.70954971  0.25582578  0.33179908    -0.94900
O248        O  0.73325597  0.42044066  0.20390363    -0.89900
C249        C  0.68896864  0.28060300  0.34660176     1.14800
C250        C  0.66872430  0.20947999  0.97774678     0.04700
C251        C  0.63606088  0.18561524  0.97882027    -0.11400
C252        C  0.61997955  0.17337923  0.01425983     0.02200
C253        C  0.63870086  0.18392539  0.04930239    -0.10000
C254        C  0.67271998  0.20718418  0.04827659     0.04700
C255        C  0.68744918  0.22014170  0.01234219    -0.09400
H256        H  0.62180555  0.17847726  0.95152015     0.10300
H257        H  0.62636356  0.17520739  0.07703327     0.07800
H258        H  0.71230716  0.23966769  0.01142523     0.07700
C259        C  0.80791007  0.36929974  0.01472590     0.04700
C260        C  0.80162184  0.34792097  0.98050986    -0.11400
C261        C  0.81446834  0.36254946  0.94438256     0.02200
C262        C  0.83375027  0.39927427  0.94300999    -0.10000
C263        C  0.84026136  0.42069081  0.97778502     0.04700
C264        C  0.82711847  0.40494326  0.01311824    -0.09400
H265        H  0.78600451  0.32045122  0.98186206     0.10300
H266        H  0.84335126  0.41099916  0.91531807     0.07800
H267        H  0.83121962  0.42087263  0.04010470     0.07700
C268        C  0.93917810  0.21451062  0.69125850     0.04700
C269        C  0.94143738  0.19270462  0.65611996    -0.11400
C270        C  0.97775417  0.18328203  0.63844147     0.02200
C271        C  0.01242315  0.19609843  0.65701376    -0.10000
C272        C  0.01180086  0.21811497  0.69191160     0.04700
C273        C  0.97482508  0.22709516  0.70875973    -0.09400
H274        H  0.91466693  0.18319483  0.64233411     0.10300
H275        H  0.04031950  0.18935637  0.64387294     0.07800
H276        H  0.97378090  0.24416538  0.73527509     0.07700
C277        C  0.01323894  0.36391209  0.84425056     0.04700
C278        C  0.01436958  0.39925059  0.86417704    -0.11400
C279        C  0.97961062  0.41803754  0.87390891     0.02200
C280        C  0.94400774  0.40004496  0.86529677    -0.10000
C281        C  0.94369729  0.36409576  0.84616836     0.04700
C282        C  0.97818089  0.34552869  0.83645657    -0.09400
H283        H  0.04210819  0.41391412  0.86828214     0.10300
H284        H  0.91679695  0.41517098  0.87059995     0.07800
H285        H  0.97761349  0.31961081  0.81827198     0.07700
O286        O  0.82107154  0.36878939  0.79571563    -0.86600
C287        C  0.60674028  0.32832665  0.80727564     1.13500
O288        O  0.75976826  0.32647618  0.74732696    -1.34400
O289        O  0.68843002  0.29443256  0.86945180    -0.88100
O290        O  0.84835592  0.33140648  0.74978290    -0.88700
O291        O  0.80864460  0.24339535  0.75933610    -0.77600
O292        O  0.75106177  0.33674627  0.82994671    -0.99600
C293        C  0.70809998  0.19177623  0.78752674     1.23500
O294        O  0.72514803  0.26195315  0.71441334    -1.34500
Mn295      Mn  0.70129471  0.31993044  0.72337579     1.82100
O296        O  0.73930953  0.21055381  0.79404748    -0.76600
O297        O  0.65869266  0.24195464  0.84411921    -0.86000
C298        C  0.62327290  0.27865516  0.70826076     1.14600
C299        C  0.67500088  0.26016412  0.87203491     1.09300
O300        O  0.71395373  0.34475808  0.66708433    -0.77600
O301        O  0.69430743  0.29411428  0.78080333    -1.31300
O302        O  0.76958746  0.31726024  0.66472929    -0.96800
C303        C  0.75546144  0.17292970  0.68707214     1.08000
Mn304      Mn  0.64858126  0.25150849  0.78441273     1.48600
O305        O  0.77371708  0.20138921  0.67268485    -0.86000
Mn306      Mn  0.80670738  0.32698617  0.70640692     1.49600
O307        O  0.76759256  0.41463809  0.74449215    -0.89900
C308        C  0.77269640  0.31277678  0.84460753     1.21200
C309        C  0.78536949  0.41455548  0.71222803     1.13300
Mn310      Mn  0.75144168  0.26841738  0.77158619     1.81000
O311        O  0.63941560  0.25340789  0.72767606    -0.95000
Mn312      Mn  0.76203160  0.37339925  0.78810402     1.49300
C313        C  0.84900126  0.34942591  0.78190533     1.09800
Mn314      Mn  0.68094363  0.21760541  0.71134179     1.49900
C315        C  0.68974587  0.24434443  0.62388058     1.12700
O316        O  0.81097054  0.27036484  0.70413856    -1.00800
O317        O  0.60695974  0.29389692  0.79423632    -0.90500
C318        C  0.82697391  0.24921081  0.72783067     1.24000
O319        O  0.68288324  0.20828438  0.76829461    -1.01200
O320        O  0.63555971  0.34549820  0.82223538    -0.88600
O321        O  0.67121288  0.22843026  0.65181155    -0.88200
O322        O  0.80403536  0.38609480  0.69856475    -0.88200
Mn323      Mn  0.69433320  0.33658412  0.82660045     1.47900
O324        O  0.64276747  0.30935448  0.70118069    -0.76700
C325        C  0.74638985  0.33983788  0.65016132     1.17000
O326        O  0.77671927  0.28025289  0.82769214    -0.75400
O327        O  0.67810555  0.37793990  0.73560921    -0.75000
Mn328      Mn  0.76728464  0.26051190  0.66840881     1.51100
O329        O  0.72130711  0.17428765  0.70068733    -0.87400
O330        O  0.70564194  0.37950525  0.79054264    -0.94900
O331        O  0.72455875  0.25627705  0.62611127    -0.89900
C332        C  0.68470963  0.39608467  0.76707415     1.14800
C333        C  0.15126104  0.72613095  0.98020894     0.04700
C334        C  0.13114805  0.69097727  0.98149250    -0.11400
C335        C  0.11771813  0.67522090  0.01669560     0.02200
C336        C  0.12486929  0.69609504  0.05166941    -0.10000
C337        C  0.14519324  0.73225182  0.05068436     0.04700
C338        C  0.15831146  0.74693782  0.01465790    -0.09400
H339        H  0.12654235  0.67542843  0.95436372     0.10300
H340        H  0.11503548  0.68432050  0.07925816     0.07800
H341        H  0.17466882  0.77398424  0.01355170     0.07700
C342        C  0.28826514  0.88759931  0.01843966     0.04700
C343        C  0.32042634  0.91214169  0.01711671    -0.11400
C344        C  0.33621129  0.92440610  0.98153251     0.02200
C345        C  0.31750140  0.91341912  0.94663239    -0.10000
C346        C  0.28379521  0.88972313  0.94789618     0.04700
C347        C  0.26949458  0.87659039  0.98395658    -0.09400
H348        H  0.33471566  0.91958393  0.04431777     0.10300
H349        H  0.32964179  0.92212750  0.91881206     0.07800
H350        H  0.24502698  0.85658754  0.98504355     0.07700
C351        C  0.13784901  0.99724006  0.69144578     0.04700
C352        C  0.11411264  0.99644534  0.65778660    -0.11400
C353        C  0.10307965  0.03164212  0.63960025     0.02200
C354        C  0.11498265  0.06701729  0.65604094    -0.10000
C355        C  0.13957791  0.06788817  0.68814649     0.04700
C356        C  0.15097511  0.03313035  0.70618087    -0.09400
H357        H  0.10547298  0.96877499  0.64523140     0.10300
H358        H  0.10726415  0.09441669  0.64226651     0.07800
H359        H  0.17102586  0.03391815  0.73060066     0.07700
C360        C  0.30000103  0.03161356  0.82626204     0.04700
C361        C  0.33572095  0.03312643  0.84528695    -0.11400
C362        C  0.35103201  0.06823987  0.85947493     0.02200
C363        C  0.32919008  0.10295130  0.85401345    -0.10000
C364        C  0.29251939  0.10169874  0.83464428     0.04700
C365        C  0.27823829  0.06574120  0.82093363    -0.09400
H366        H  0.35200363  0.00623486  0.84854530     0.10300
H367        H  0.34060725  0.13051654  0.86436002     0.07800
H368        H  0.25076031  0.06448292  0.80535108     0.07700
O369        O  0.35193097  0.84333818  0.75089562    -0.86600
C370        C  0.19674831  0.74050762  0.87228746     1.13500
O371        O  0.26297968  0.83147468  0.74827742    -1.34400
O372        O  0.28175760  0.70203436  0.81989961    -0.88100
O373        O  0.32625755  0.86991223  0.69705855    -0.88700
O374        O  0.27898985  0.78466205  0.66829896    -0.77600
O375        O  0.31392224  0.77728974  0.79078088    -0.99600
C376        C  0.21434490  0.69915763  0.70529431     1.23500
O377        O  0.19738412  0.79771546  0.71443290    -1.34500
Mn378      Mn  0.20527535  0.82210408  0.77203910     1.82100
O379        O  0.24529944  0.71787610  0.70007743    -0.76600
O380        O  0.22869216  0.67560986  0.79247082    -0.86000
C381        C  0.13125813  0.77967319  0.78896926     1.14600
C382        C  0.26284793  0.67310877  0.80619417     1.09300
O383        O  0.18123232  0.87774190  0.76129885    -0.77600
O384        O  0.23008847  0.76479012  0.78101002    -1.31300
O385        O  0.20842221  0.88199292  0.70591739    -0.96800
C386        C  0.17465502  0.76552212  0.62245247     1.08000
Mn387      Mn  0.18772916  0.71921057  0.78311761     1.48600
O388        O  0.18699880  0.80013249  0.62540538    -0.86000
Mn389      Mn  0.26564057  0.87665666  0.70558384     1.49600
O390        O  0.30001220  0.89501466  0.80014889    -0.89900
C391        C  0.32873998  0.75638099  0.76629802     1.21200
C392        C  0.28628329  0.92355794  0.78073784     1.13300
Mn393      Mn  0.25500546  0.77384996  0.72379786     1.81000
O394        O  0.14619129  0.75510234  0.76822133    -0.95000
Mn395      Mn  0.30771736  0.83448403  0.79134959     1.49300
C396        C  0.35484517  0.85633240  0.71648267     1.09800
Mn397      Mn  0.15276870  0.75448889  0.71116821     1.49900
C398        C  0.10558025  0.82933575  0.68939966     1.12700
O399        O  0.25197121  0.84019927  0.66418581    -1.00800
O400        O  0.17794119  0.72647274  0.84348771    -0.90500
C401        C  0.27318140  0.81566148  0.64986918     1.24000
O402        O  0.18928435  0.71340007  0.72593525    -1.01200
O403        O  0.23105178  0.75384982  0.86991447    -0.88600
O404        O  0.10855389  0.79481002  0.70208015    -0.88200
O405        O  0.27355545  0.92067553  0.74625881    -0.88200
Mn406      Mn  0.27229604  0.76264373  0.82664343     1.47900
O407        O  0.14932291  0.81089538  0.79485942    -0.76700
C408        C  0.18702580  0.89623694  0.73032031     1.17000
O409        O  0.31084141  0.75079122  0.73495960    -0.75400
O410        O  0.21501351  0.84572149  0.82799866    -0.75000
Mn411      Mn  0.19479422  0.84062668  0.66944866     1.51100
O412        O  0.16098672  0.74586341  0.65083072    -0.87400
O413        O  0.27105875  0.81988128  0.83234318    -0.94900
O414        O  0.13416396  0.84903552  0.67616443    -0.89900
C415        C  0.24604176  0.84058333  0.84659298     1.14800
C416        C  0.94671446  0.72971397  0.15547138     0.04700
C417        C  0.94463826  0.69501116  0.13455487    -0.11400
C418        C  0.97889275  0.67603979  0.12368308     0.02200
C419        C  0.01494573  0.69307308  0.13226243    -0.10000
C420        C  0.01623631  0.72817569  0.15271448     0.04700
C421        C  0.98226339  0.74697537  0.16372954    -0.09400
H422        H  0.91657718  0.68106778  0.13013926     0.10300
H423        H  0.04181626  0.67777326  0.12581524     0.07800
H424        H  0.98358000  0.77232590  0.18264936     0.07700
C425        C  0.94749312  0.87543434  0.30328669     0.04700
C426        C  0.98426772  0.86546313  0.28647928    -0.11400
C427        C  0.02023417  0.87707035  0.30409749     0.02200
C428        C  0.01845581  0.89891673  0.33924954    -0.10000
C429        C  0.98237637  0.90943866  0.35677217     0.04700
C430        C  0.94742507  0.89746200  0.33817025    -0.09400
H431        H  0.98489746  0.84845323  0.25991172     0.10300
H432        H  0.04542900  0.90776444  0.35307718     0.07800
H433        H  0.91969033  0.90501996  0.35120868     0.07700
C434        C  0.82187887  0.09825583  0.30310943     0.04700
C435        C  0.80863459  0.06240023  0.28848281    -0.11400
C436        C  0.81967195  0.02772426  0.30679661     0.02200
C437        C  0.84407680  0.02854399  0.33901239    -0.10000
C438        C  0.85639660  0.06386699  0.35519430     0.04700
C439        C  0.84559589  0.09907444  0.33682310    -0.09400
H440        H  0.78865884  0.06159133  0.26399816     0.10300
H441        H  0.85144239  0.00114099  0.35297563     0.07800
H442        H  0.85445199  0.12674693  0.34921621     0.07700
C443        C  0.66326346  0.99504362  0.16212247     0.04700
C444        C  0.67751099  0.03106800  0.17586701    -0.11400
C445        C  0.65654758  0.06552972  0.16914035     0.02200
C446        C  0.62166211  0.06429837  0.14860428    -0.10000
C447        C  0.60609093  0.02914709  0.13477962     0.04700
C448        C  0.62720574  0.99414712  0.14152142    -0.09400
H449        H  0.70433987  0.03214360  0.19254568     0.10300
H450        H  0.60599920  0.09140682  0.14426343     0.07800
H451        H  0.61559365  0.96660164  0.13134652     0.07700
O452        O  0.63869015  0.74879665  0.17825869    -0.86600
C453        C  0.85276469  0.73858920  0.22107332     1.13500
O454        O  0.69957433  0.79799750  0.22050122    -1.34400
O455        O  0.77090071  0.67661494  0.25458744    -0.88100
O456        O  0.61102476  0.79478574  0.21526335    -0.88700
O457        O  0.65012018  0.78702964  0.30344322    -0.77600
O458        O  0.70846512  0.71531222  0.21126356    -0.99600
C459        C  0.75061725  0.75886481  0.35608666     1.23500
O460        O  0.73354434  0.83175018  0.28485361    -1.34500
Mn461      Mn  0.75794147  0.82224771  0.22731820     1.82100
O462        O  0.71935956  0.75227079  0.33735172    -0.76600
O463        O  0.80046729  0.70238423  0.30692369    -0.86000
C464        C  0.83559471  0.83822688  0.26927312     1.14600
C465        C  0.78432810  0.67426110  0.28884370     1.09300
O466        O  0.74542078  0.87828083  0.20160965    -0.77600
O467        O  0.76485306  0.76514498  0.25389506    -1.31300
O468        O  0.68936158  0.88073939  0.22814480    -0.96800
C469        C  0.70091796  0.85869123  0.37231784     1.08000
Mn470      Mn  0.81031859  0.76216924  0.29696851     1.48600
O471        O  0.68402338  0.87439884  0.34379431    -0.86000
Mn472      Mn  0.65242240  0.83862150  0.21893141     1.49600
O473        O  0.69237311  0.79967889  0.13219340    -0.89900
C474        C  0.68642982  0.70096043  0.23510763     1.21200
C475        C  0.67404419  0.83161310  0.13154744     1.13300
Mn476      Mn  0.70747122  0.77439984  0.27901039     1.81000
O477        O  0.81939226  0.81911335  0.29478320    -0.95000
Mn478      Mn  0.69778902  0.75665964  0.17401766     1.49300
C479        C  0.61066345  0.76243027  0.19761517     1.09800
Mn480      Mn  0.77691163  0.83521723  0.32987399     1.49900
C481        C  0.76823658  0.92262719  0.30240326     1.12700
O482        O  0.64802628  0.84172023  0.27534917    -1.00800
O483        O  0.85231756  0.75206124  0.25528670    -0.90500
C484        C  0.63186852  0.81842744  0.29681726     1.24000
O485        O  0.77555089  0.77834240  0.33948219    -1.01200
O486        O  0.82407742  0.72352542  0.20376714    -0.88600
O487        O  0.78619057  0.89490949  0.31932499    -0.88200
O488        O  0.65504711  0.84550938  0.15968060    -0.88200
Mn489      Mn  0.76524197  0.71895136  0.21192056     1.47900
O490        O  0.81628643  0.84471685  0.23832475    -0.76700
C491        C  0.71281640  0.89511648  0.20570766     1.17000
O492        O  0.68222662  0.71813304  0.26748399    -0.75400
O493        O  0.78161430  0.80953922  0.16964659    -0.75000
Mn494      Mn  0.69134575  0.87780769  0.28493523     1.51100
O495        O  0.73504208  0.84492316  0.37194870    -0.87400
O496        O  0.75428177  0.75442689  0.16824430    -0.94900
O497        O  0.73396553  0.92017419  0.28907558    -0.89900
C498        C  0.77515510  0.77798796  0.15157181     1.14800
C499        C  0.65919107  0.89415657  0.03554801     0.04700
C500        C  0.67807441  0.88393122  0.00133423    -0.11400
C501        C  0.66044398  0.89214791  0.96596080     0.02200
C502        C  0.62539639  0.91241156  0.96431746    -0.10000
C503        C  0.60630102  0.92250342  0.99872484     0.04700
C504        C  0.62355224  0.91376605  0.03463916    -0.09400
H505        H  0.70385226  0.86559801  0.00229892     0.10300
H506        H  0.61133168  0.91692313  0.93634522     0.07800
H507        H  0.60818145  0.91958920  0.06161003     0.07700
C508        C  0.80685169  0.74300278  0.96620161     0.04700
C509        C  0.79729904  0.75940650  0.00325205    -0.11400
C510        C  0.80941518  0.74151516  0.03887775     0.02200
C511        C  0.83135347  0.70642423  0.03645327    -0.10000
C512        C  0.84145627  0.68921694  0.00005016     0.04700
C513        C  0.82899394  0.70816474  0.96545651    -0.09400
H514        H  0.78020670  0.78590799  0.00436046     0.10300
H515        H  0.84056409  0.69237022  0.06317692     0.07800
H516        H  0.83621222  0.69541613  0.93749866     0.07700
C517        C  0.82224332  0.07927313  0.67866601     0.04700
C518        C  0.84342658  0.08111604  0.64415091    -0.11400
C519        C  0.85650978  0.04680996  0.62667767     0.02200
C520        C  0.84989858  0.01099354  0.64516643    -0.10000
C521        C  0.82929297  0.01000936  0.68027809     0.04700
C522        C  0.81626288  0.04411626  0.69754413    -0.09400
H523        H  0.84619400  0.10878820  0.62905393     0.10300
H524        H  0.85774880  0.98394308  0.63086821     0.07800
H525        H  0.79723236  0.04281804  0.72280759     0.07700
C526        C  0.67336119  0.08086316  0.82652561     0.04700
C527        C  0.69012928  0.04403457  0.81686843    -0.11400
C528        C  0.67255691  0.00821373  0.82885000     0.02200
C529        C  0.63744156  0.01020948  0.85078726    -0.10000
C530        C  0.61994197  0.04643027  0.86103190     0.04700
C531        C  0.63857815  0.08124174  0.84870092    -0.09400
H532        H  0.71661975  0.04324877  0.79974073     0.10300
H533        H  0.62359855  0.98331198  0.85986481     0.07800
H534        H  0.62558913  0.10908115  0.85598213     0.07700
C535        C  0.99757484  0.87551242  0.67603372     0.04700
C536        C  0.96313066  0.86857526  0.69691506    -0.11400
C537        C  0.92717814  0.88252466  0.68281256     0.02200
C538        C  0.92628187  0.90332755  0.64687008    -0.10000
C539        C  0.96128030  0.91028445  0.62581656     0.04700
C540        C  0.99641137  0.89642638  0.64135449    -0.09400
H541        H  0.96417750  0.85167348  0.72360898     0.10300
H542        H  0.89874589  0.91356590  0.63533909     0.07800
H543        H  0.02353361  0.90096476  0.62577202     0.07700
C544        C  0.95916746  0.73966137  0.83823255     0.04700
C545        C  0.99383872  0.75728986  0.82602698    -0.11400
C546        C  0.02978165  0.74183636  0.83802389     0.02200
C547        C  0.03068403  0.70802018  0.86154647    -0.10000
C548        C  0.99553640  0.69029476  0.87340466     0.04700
C549        C  0.96016327  0.70729167  0.86245590    -0.09400
H550        H  0.99290149  0.78188587  0.80618284     0.10300
H551        H  0.05836224  0.69502315  0.86941572     0.07800
H552        H  0.93276252  0.69383484  0.87073299     0.07700
N553        N  0.95952212  0.96519508  0.44308685    -0.04500
N554        N  0.94767565  0.94708174  0.41094138    -0.56600
N555        N  0.98868276  0.95869338  0.53828939    -0.04200
N556        N  0.99822345  0.94010717  0.57050627    -0.58800
N557        N  0.95062986  0.96130640  0.53527278    -0.03800
N558        N  0.93348856  0.94450770  0.56573775    -0.56600
N559        N  0.99754609  0.96220616  0.44667697    -0.03500
N560        N  0.01222843  0.94217235  0.41692496    -0.59100
C561        C  0.98083819  0.93268566  0.39454180     0.97700
C562        C  0.96370966  0.93112753  0.58751601     0.97400
N563        N  0.05854247  0.05709570  0.55044698    -0.04700
N564        N  0.07473818  0.06748439  0.58356356    -0.57200
N565        N  0.06291919  0.02470100  0.45796463    -0.02800
N566        N  0.07589993  0.01263910  0.42398133    -0.58500
N567        N  0.06565097  0.06295306  0.46055447    -0.04700
N568        N  0.08048963  0.07747422  0.42822096    -0.57500
N569        N  0.05627733  0.01882124  0.54811658    -0.02500
N570        N  0.07111947  0.00254955  0.57988286    -0.58600
Mn571      Mn  0.02765786  0.98997800  0.49786079     1.18400
C572        C  0.08244726  0.03341103  0.60176187     0.99700
C573        C  0.08671905  0.04578126  0.40584908     1.00400
N574        N  0.89507223  0.03162525  0.53314180    -0.04800
N575        N  0.87934715  0.01688061  0.56492659    -0.61100
N576        N  0.90463462  0.07620149  0.44601770    -0.03600
N577        N  0.88922007  0.09266633  0.41461965    -0.61700
N578        N  0.90239558  0.03791973  0.44352239    -0.04300
N579        N  0.88559721  0.02773958  0.41064268    -0.61300
N580        N  0.89776502  0.06984188  0.53599047    -0.03200
N581        N  0.88382102  0.08170769  0.56966556    -0.62000
Mn582      Mn  0.92547727  0.99814532  0.48826933     1.10700
C583        C  0.87247965  0.04842385  0.58727124     1.01000
C584        C  0.87753580  0.06192763  0.39276693     1.01000
N585        N  0.01036186  0.13374362  0.45911936    -0.04300
N586        N  0.02751104  0.15096195  0.42891125    -0.59600
N587        N  0.96333854  0.13204293  0.54766040    -0.03600
N588        N  0.94844620  0.15132290  0.57776860    -0.56400
N589        N  0.00139133  0.12931243  0.55118979    -0.04900
N590        N  0.01304168  0.14687741  0.58372235    -0.59200
N591        N  0.97230942  0.13647213  0.45623207    -0.03900
N592        N  0.96276425  0.15561223  0.42435402    -0.56400
Mn593      Mn  0.03550681  0.09665565  0.50574036     1.20200
Mn594      Mn  0.93326795  0.10477295  0.49637724     1.10100
Cl595      Cl  0.98048191  0.04740041  0.49699868    -0.84400
C596        C  0.99727666  0.16475919  0.40744287     0.98000
C597        C  0.97970610  0.16064326  0.60035237     0.97800
N598        N  0.94958062  0.49658299  0.07265652    -0.04500
N599        N  0.93345608  0.46493469  0.08804674    -0.56600
N600        N  0.99382277  0.58355810  0.08305688    -0.04200
N601        N  0.00849803  0.61473226  0.09992093    -0.58800
N602        N  0.95565035  0.58652717  0.08023524    -0.03800
N603        N  0.94370674  0.61977103  0.09514559    -0.56600
N604        N  0.98785730  0.49441369  0.07496173    -0.03500
N605        N  0.99839122  0.46163651  0.09167659    -0.59100
C606        C  0.96446635  0.44337546  0.09971090     0.97700
C607        C  0.97696400  0.63689335  0.10727457     0.97400
N608        N  0.06761804  0.58883636  0.98935396    -0.04700
N609        N  0.08727245  0.62040502  0.97983905    -0.57200
N610        N  0.06031050  0.49412077  0.01844208    -0.02800
N611        N  0.07807435  0.46188041  0.03049291    -0.58500
N612        N  0.06345638  0.49758753  0.98043266    -0.04700
N613        N  0.08331463  0.46765497  0.96594052    -0.57500
N614        N  0.06462953  0.58599835  0.02738885    -0.02500
N615        N  0.08221465  0.61598620  0.04457245    -0.58600
Mn616      Mn  0.02745181  0.53918144  0.05231619     1.18400
C617        C  0.09647863  0.63722058  0.01434844     0.99700
C618        C  0.09246240  0.44531512  0.99746105     1.00400
N619        N  0.89381624  0.59886578  0.01417655    -0.04800
N620        N  0.87400544  0.62863665  0.02909727    -0.61100
N621        N  0.89230028  0.51053060  0.96679915    -0.03600
N622        N  0.87489713  0.48039665  0.94965868    -0.61700
N623        N  0.88937837  0.50768988  0.00483691    -0.04300
N624        N  0.86991141  0.47603161  0.01438475    -0.61300
N625        N  0.89679938  0.60265873  0.97614752    -0.03200
N626        N  0.87886847  0.63506506  0.96459634    -0.62000
Mn627      Mn  0.92097695  0.54732668  0.04416593     1.10700
C628        C  0.86461609  0.65134036  0.99793997     1.01000
C629        C  0.86077535  0.45911132  0.97992295     1.01000
N630        N  0.00168658  0.50935646  0.91434428    -0.04300
N631        N  0.01387180  0.47574690  0.90051376    -0.59600
N632        N  0.96960708  0.60174066  0.91891692    -0.03600
N633        N  0.95945685  0.63462415  0.90212206    -0.56400
N634        N  0.00786262  0.59926284  0.92129586    -0.04900
N635        N  0.02435212  0.63071194  0.90595442    -0.59200
N636        N  0.96346801  0.51201938  0.91144582    -0.03900
N637        N  0.94907638  0.48007620  0.89562145    -0.56400
Mn638      Mn  0.03625317  0.54885872  0.95012701     1.20200
Mn639      Mn  0.92967215  0.55716894  0.94184354     1.10100
Cl640      Cl  0.97855691  0.54818304  0.99708656    -0.84400
C641        C  0.98083279  0.45790038  0.88894064     0.98000
C642        C  0.99363050  0.65254374  0.89419699     0.97800
N643        N  0.44207915  0.13419312  0.98188783    -0.04500
N644        N  0.40980520  0.14904284  0.96721465    -0.56600
N645        N  0.52915171  0.12490019  0.02684152    -0.04200
N646        N  0.56048057  0.14053707  0.04331978    -0.58800
N647        N  0.53172391  0.12715366  0.98859377    -0.03800
N648        N  0.56450207  0.14413081  0.97843544    -0.56600
N649        N  0.43924072  0.13131770  0.02009216    -0.03500
N650        N  0.40518331  0.14416795  0.03196714    -0.59100
C651        C  0.38723603  0.15509068  0.99880335     0.97700
C652        C  0.58230905  0.15233674  0.01256474     0.97400
N653        N  0.51570775  0.01862640  0.08356495    -0.04700
N654        N  0.54610394  0.00141299  0.10037305    -0.57200
N655        N  0.42712510  0.06553436  0.08210941    -0.02800
N656        N  0.39718591  0.07995487  0.10204649    -0.58500
N657        N  0.42370179  0.02750260  0.07895205    -0.04700
N658        N  0.39153102  0.01536761  0.09679201    -0.57500
N659        N  0.51863682  0.05668235  0.08649749    -0.02500
N660        N  0.55071178  0.06614993  0.10534177    -0.58600
Mn661      Mn  0.47863540  0.09587620  0.05504196     1.18400
C662        C  0.56773130  0.03159712  0.11411467     0.99700
C663        C  0.37492165  0.04835669  0.11123794     1.00400
N664        N  0.53316920  0.06977583  0.91607766    -0.04800
N665        N  0.56558886  0.08148841  0.89830616    -0.61100
N666        N  0.43820843  0.04089259  0.90814346    -0.03600
N667        N  0.40638645  0.03140370  0.88890719    -0.61700
N668        N  0.44111225  0.07894705  0.91103721    -0.04300
N669        N  0.41090803  0.09614608  0.89386742    -0.61300
N670        N  0.52951920  0.03171516  0.91309347    -0.03200
N671        N  0.55944302  0.01692454  0.89340778    -0.62000
Mn672      Mn  0.48748248  0.10398281  0.94854016     1.10700
C673        C  0.58205134  0.04822027  0.88413007     1.01000
C674        C  0.38947687  0.06593030  0.87989550     1.01000
N675        N  0.42452448  0.97076466  0.00657448    -0.04300
N676        N  0.39176416  0.95390280  0.01693313    -0.59600
N677        N  0.51680008  0.96562131  0.97508175    -0.03600
N678        N  0.55010982  0.95073046  0.96339568    -0.56400
N679        N  0.51358625  0.96280204  0.01322971    -0.04900
N680        N  0.54467808  0.94597261  0.02814280    -0.59200
N681        N  0.42695357  0.97297458  0.96831009    -0.03900
N682        N  0.39549444  0.95737590  0.95202187    -0.56400
Mn683      Mn  0.46898403  0.99360887  0.04640230     1.20200
Mn684      Mn  0.47780733  0.00159665  0.93999358     1.10100
Cl685      Cl  0.47826677  0.04878490  0.99746412    -0.84400
C686        C  0.37376972  0.94568923  0.98292475     0.98000
C687        C  0.56703232  0.93861288  0.99674735     0.97800
O688        O  0.77701088  0.67446353  0.75695455    -0.86600
C689        C  0.66884275  0.82734568  0.87126899     1.13500
O690        O  0.76280958  0.76203805  0.75320852    -1.34400
O691        O  0.63296169  0.74123065  0.81847596    -0.88100
O692        O  0.80482381  0.70179370  0.70457950    -0.88700
O693        O  0.71839279  0.74369770  0.66927868    -0.77600
O694        O  0.70907139  0.70816685  0.79485414    -0.99600
C695        C  0.63276707  0.81295255  0.70485318     1.23500
O696        O  0.72998159  0.82662827  0.71862334    -1.34500
Mn697      Mn  0.75357409  0.81991470  0.77722524     1.82100
O698        O  0.64968326  0.78038875  0.70090880    -0.76600
O699        O  0.60758137  0.79376548  0.78887862    -0.86000
C700        C  0.70966893  0.89604953  0.79389300     1.14600
C701        C  0.60510211  0.75938056  0.80205767     1.09300
O702        O  0.80997584  0.84484533  0.76509067    -0.77600
O703        O  0.69617354  0.79393185  0.78371827    -1.31300
O704        O  0.81264671  0.81749803  0.70942159    -0.96800
C705        C  0.69635795  0.85018837  0.62907488     1.08000
Mn706      Mn  0.65025918  0.83627637  0.78354401     1.48600
O707        O  0.72849164  0.83220781  0.62987169    -0.86000
Mn708      Mn  0.80901103  0.76081390  0.71130660     1.49600
O709        O  0.82533832  0.72862683  0.80744192    -0.89900
C710        C  0.69005892  0.69155455  0.76956566     1.21200
C711        C  0.85331512  0.74446415  0.78890894     1.13300
Mn712      Mn  0.70573613  0.76845510  0.72654939     1.81000
O713        O  0.68623670  0.87957890  0.77275534    -0.95000
Mn714      Mn  0.76590064  0.71762582  0.79732254     1.49300
C715        C  0.79065244  0.67323752  0.72281776     1.09800
Mn716      Mn  0.68923636  0.87357375  0.71629228     1.49900
C717        C  0.76554287  0.91482329  0.69389910     1.12700
O718        O  0.77353351  0.77085074  0.66748933    -1.00800
O719        O  0.65420806  0.84474679  0.84242476    -0.90500
C720        C  0.75000664  0.74973307  0.65118586     1.24000
O721        O  0.64727678  0.83681614  0.72674784    -1.01200
O722        O  0.68193252  0.79296470  0.87095276    -0.88600
O723        O  0.73304570  0.91486212  0.71130316    -0.88200
O724        O  0.85112483  0.75638052  0.75411347    -0.88200
Mn725      Mn  0.69245127  0.75103567  0.82920233     1.47900
O726        O  0.74107531  0.87781503  0.80054857    -0.76700
C727        C  0.82715321  0.83993842  0.73278756     1.17000
O728        O  0.68341004  0.71037859  0.73840301    -0.75400
O729        O  0.77540537  0.80923062  0.83586861    -0.75000
Mn730      Mn  0.77133328  0.82743237  0.67201658     1.51100
O731        O  0.68216172  0.86910395  0.65712947    -0.87400
O732        O  0.74913613  0.75315777  0.83893929    -0.94900
O733        O  0.77928643  0.88647058  0.67514052    -0.89900
C734        C  0.76838888  0.77844910  0.85524547     1.14800
C735        C  0.32107808  0.85461097  0.54863752     0.04700
C736        C  0.34470986  0.88833546  0.54984878    -0.11400
C737        C  0.35556360  0.90704787  0.51492805     0.02200
C738        C  0.34330396  0.89121312  0.47938744    -0.10000
C739        C  0.31901199  0.85886351  0.47813627     0.04700
C740        C  0.30789193  0.84023433  0.51264814    -0.09400
H741        H  0.35356851  0.90042254  0.57764644     0.10300
H742        H  0.35083499  0.90540353  0.45215515     0.07800
H743        H  0.28809447  0.81559317  0.51161109     0.07700
C744        C  0.16131590  0.71951056  0.51501378     0.04700
C745        C  0.12593536  0.69980834  0.51405931    -0.11400
C746        C  0.11024484  0.68575500  0.47911255     0.02200
C747        C  0.13148470  0.69167979  0.44412899    -0.10000
C748        C  0.16787257  0.71155230  0.44493007     0.04700
C749        C  0.18244923  0.72540078  0.48063945    -0.09400
H750        H  0.11011017  0.69613790  0.54116982     0.10300
H751        H  0.11975897  0.68139959  0.41668291     0.07800
H752        H  0.20963890  0.74153322  0.48152438     0.07700
C753        C  0.80403737  0.37542557  0.48025888     0.04700
C754        C  0.78298986  0.36859459  0.51461720    -0.11400
C755        C  0.79688120  0.38271395  0.55058744     0.02200
C756        C  0.83273047  0.40364271  0.55160913    -0.10000
C757        C  0.85395068  0.41046603  0.51672268     0.04700
C758        C  0.83870300  0.39636893  0.48154957    -0.09400
H759        H  0.75631061  0.35165677  0.51349302     0.10300
H760        H  0.84406959  0.41407234  0.57915781     0.07800
H761        H  0.85444419  0.40082439  0.45450943     0.07700
C762        C  0.63940080  0.24029228  0.51839518     0.04700
C763        C  0.65155237  0.25794040  0.48372905    -0.11400
C764        C  0.63943161  0.24257894  0.44778814     0.02200
C765        C  0.61587164  0.20874021  0.44689297    -0.10000
C766        C  0.60397373  0.19102154  0.48205776     0.04700
C767        C  0.61496882  0.20805346  0.51741471    -0.09400
H768        H  0.67151412  0.28245363  0.48466497     0.10300
H769        H  0.60798199  0.19574237  0.41921903     0.07800
H770        H  0.60668814  0.19462417  0.54481882     0.07700
C771        C  0.63271488  0.86456616  0.46468672     0.04700
C772        C  0.64137100  0.84654130  0.49971375    -0.11400
C773        C  0.63203044  0.86519994  0.53424726     0.02200
C774        C  0.61239319  0.90087793  0.53406204    -0.10000
C775        C  0.60292821  0.91852562  0.49850356     0.04700
C776        C  0.61227142  0.89960658  0.46369306    -0.09400
H777        H  0.65990004  0.82087109  0.50012123     0.10300
H778        H  0.60737185  0.91611154  0.56126714     0.07800
H779        H  0.60752348  0.91402591  0.43594224     0.07700
C780        C  0.78757746  0.71560059  0.53910619     0.04700
C781        C  0.82276528  0.69384708  0.53691099    -0.11400
C782        C  0.84049319  0.68433590  0.50062577     0.02200
C783        C  0.82189654  0.69707556  0.46591757    -0.10000
C784        C  0.78695008  0.71907076  0.46649320     0.04700
C785        C  0.77011738  0.72812718  0.50344396    -0.09400
H786        H  0.83650892  0.68437852  0.56370743     0.10300
H787        H  0.83501975  0.69024171  0.43803895     0.07800
H788        H  0.74356426  0.74513734  0.50445299     0.07700
C789        C  0.44258368  0.39453152  0.81814526     0.04700
C790        C  0.47669324  0.38464250  0.79888419    -0.11400
C791        C  0.51220567  0.39331243  0.81607292     0.02200
C792        C  0.51399564  0.41357160  0.85115926    -0.10000
C793        C  0.47965533  0.42312384  0.87070679     0.04700
C794        C  0.44367724  0.41409194  0.85377729    -0.09400
H795        H  0.47560964  0.36627645  0.77313014     0.10300
H796        H  0.54206274  0.41839449  0.86493650     0.07800
H797        H  0.41679916  0.41957042  0.86944213     0.07700
C798        C  0.51202851  0.24342327  0.67068595     0.04700
C799        C  0.47510773  0.25973816  0.68081140    -0.11400
C800        C  0.43936051  0.24188749  0.66898719     0.02200
C801        C  0.44148686  0.20693771  0.64686627    -0.10000
C802        C  0.47774488  0.18983107  0.63628481     0.04700
C803        C  0.51250136  0.20871335  0.64837366    -0.09400
H804        H  0.47419765  0.28614925  0.69806282     0.10300
H805        H  0.41464831  0.19291970  0.63789271     0.07800
H806        H  0.54037038  0.19601698  0.64073045     0.07700
C807        C  0.44723414  0.85483256  0.32759984     0.04700
C808        C  0.44672221  0.88963364  0.34981710    -0.11400
C809        C  0.48152434  0.90833110  0.36215791     0.02200
C810        C  0.51774208  0.89095331  0.35205931    -0.10000
C811        C  0.51980611  0.85583635  0.33029066     0.04700
C812        C  0.48413311  0.83823321  0.31805437    -0.09400
H813        H  0.41886211  0.90253267  0.35714553     0.10300
H814        H  0.54459453  0.90480137  0.36126061     0.07800
H815        H  0.48508883  0.81171382  0.30097281     0.07700
C816        C  0.51670203  0.69660227  0.18433435     0.04700
C817        C  0.51665810  0.67684437  0.14870867    -0.11400
C818        C  0.48118469  0.66867836  0.13029064     0.02200
C819        C  0.44628713  0.67889594  0.14854283    -0.10000
C820        C  0.44708498  0.69944023  0.18346300     0.04700
C821        C  0.48201020  0.70711033  0.20219906    -0.09400
H822        H  0.54397275  0.67113387  0.13391716     0.10300
H823        H  0.41870204  0.67496782  0.13355960     0.07800
H824        H  0.48241395  0.72583723  0.22771723     0.07700
C825        C  0.78899293  0.49736276  0.33930334     0.04700
C826        C  0.82270933  0.49661516  0.36297513    -0.11400
C827        C  0.84053075  0.53186596  0.37449646     0.02200
C828        C  0.82376010  0.56721733  0.36304933    -0.10000
C829        C  0.79163318  0.56808339  0.33849320     0.04700
C830        C  0.77391997  0.53328233  0.32665458    -0.09400
H831        H  0.83549854  0.46896951  0.37131339     0.10300
H832        H  0.83723434  0.59465698  0.37117907     0.07800
H833        H  0.74941711  0.53408646  0.30670754     0.07700
C834        C  0.64404981  0.60157253  0.18488894     0.04700
C835        C  0.62445295  0.60270479  0.14831569    -0.11400
C836        C  0.61902324  0.56793941  0.12649230     0.02200
C837        C  0.63343656  0.53289315  0.14171500    -0.10000
C838        C  0.65277538  0.53148363  0.17726056     0.04700
C839        C  0.65803493  0.56565475  0.19902184    -0.09400
H840        H  0.61393766  0.63021287  0.13694480     0.10300
H841        H  0.63021734  0.50598576  0.12543784     0.07800
H842        H  0.67382190  0.56447119  0.22637965     0.07700
C843        C  0.49988964  0.70795702  0.80807524     0.04700
C844        C  0.49904787  0.68362419  0.84039424    -0.11400
C845        C  0.46370249  0.67204015  0.85716092     0.02200
C846        C  0.42849188  0.68335685  0.83918245    -0.10000
C847        C  0.42933022  0.70682186  0.80530861     0.04700
C848        C  0.46517442  0.71941105  0.79014555    -0.09400
H849        H  0.52648637  0.67585101  0.85403223     0.10300
H850        H  0.40082920  0.67509094  0.85198451     0.07800
H851        H  0.46597228  0.73926840  0.76555451     0.07700
C852        C  0.46290618  0.87043460  0.67073180     0.04700
C853        C  0.49707873  0.84876205  0.67630944    -0.11400
C854        C  0.53313866  0.86317090  0.66295013     0.02200
C855        C  0.53440585  0.89990941  0.64365409    -0.10000
C856        C  0.49965236  0.92159436  0.63780831     0.04700
C857        C  0.46446241  0.90613888  0.65165506    -0.09400
H858        H  0.49577155  0.82125556  0.69184770     0.10300
H859        H  0.56200445  0.91145849  0.63356556     0.07800
H860        H  0.43754441  0.92231432  0.64813192     0.07700
C861        C  0.80047113  0.57957281  0.65641667     0.04700
C862        C  0.83499684  0.58168965  0.63526202    -0.11400
C863        C  0.85272643  0.54748930  0.62226273     0.02200
C864        C  0.83452927  0.51155293  0.62890514    -0.10000
C865        C  0.79947136  0.51031208  0.64951045     0.04700
C866        C  0.78195655  0.54425637  0.66257314    -0.09400
H867        H  0.84984758  0.60948960  0.63238191     0.10300
H868        H  0.84898361  0.48459889  0.62101134     0.07800
H869        H  0.75669466  0.54275886  0.68159531     0.07700
C870        C  0.65230427  0.58041051  0.80463002     0.04700
C871        C  0.62998027  0.58061691  0.83929385    -0.11400
C872        C  0.61771100  0.54570985  0.85776494     0.02200
C873        C  0.62812468  0.50957765  0.84022166    -0.10000
C874        C  0.65020771  0.50781434  0.80520211     0.04700
C875        C  0.66225659  0.54369275  0.78787078    -0.09400
H876        H  0.62245966  0.60840107  0.85226854     0.10300
H877        H  0.61899434  0.48260597  0.85388352     0.07800
H878        H  0.67949093  0.54304099  0.76144774     0.07700
C879        C  0.31595888  0.49460228  0.81501340     0.04700
C880        C  0.33663241  0.49376312  0.85099136    -0.11400
C881        C  0.34336771  0.52878811  0.87202916     0.02200
C882        C  0.32950133  0.56392496  0.85646843    -0.10000
C883        C  0.30890319  0.56508115  0.82161625     0.04700
C884        C  0.30211251  0.53056317  0.80076819    -0.09400
H885        H  0.34689608  0.46625079  0.86258548     0.10300
H886        H  0.33391476  0.59106452  0.87206837     0.07800
H887        H  0.28539238  0.53155923  0.77396555     0.07700
C888        C  0.17653623  0.59782511  0.65610588     0.04700
C889        C  0.19103310  0.56174276  0.66893869    -0.11400
C890        C  0.17262595  0.52722668  0.65739761     0.02200
C891        C  0.14048654  0.52849891  0.63291078    -0.10000
C892        C  0.12431930  0.56405055  0.62122891     0.04700
C893        C  0.14279307  0.59903403  0.63247870    -0.09400
H894        H  0.21546454  0.56062735  0.68896028     0.10300
H895        H  0.12646203  0.50123437  0.62512258     0.07800
H896        H  0.13042983  0.62684792  0.62405934     0.07700
N897        N  0.03270256  0.46319323  0.48119128    -0.04500
N898        N  0.06255876  0.44335637  0.46652082    -0.56600
N899        N  0.94407983  0.46199340  0.52782640    -0.04200
N900        N  0.91364074  0.44502440  0.54483099    -0.58800
N901        N  0.94124978  0.45932383  0.48978032    -0.03800
N902        N  0.90921112  0.44053000  0.48006932    -0.56600
N903        N  0.03621194  0.46617686  0.51920106    -0.03500
N904        N  0.06843801  0.44826059  0.53108981    -0.59100
C905        C  0.08492703  0.43399638  0.49792399     0.97700
C906        C  0.89210970  0.43148933  0.51449451     0.97400
N907        N  0.94315163  0.57072970  0.58072708    -0.04700
N908        N  0.90956013  0.58256904  0.59487712    -0.57200
N909        N  0.03549540  0.53880555  0.57597639    -0.02800
N910        N  0.06848165  0.52844551  0.59237909    -0.58500
N911        N  0.03309165  0.57710097  0.57390216    -0.04700
N912        N  0.06470815  0.59339402  0.58910759    -0.57500
N913        N  0.94601953  0.53250810  0.58330448    -0.02500
N914        N  0.91434047  0.51772372  0.59916085    -0.58600
Mn915      Mn  0.99088736  0.49901477  0.55302365     1.18400
C916        C  0.89204549  0.54924568  0.60621831     0.99700
C917        C  0.08655505  0.56250339  0.60043131     1.00400
N918        N  0.93150160  0.51945717  0.42230993    -0.04800
N919        N  0.90003856  0.50303545  0.40699261    -0.61100
N920        N  0.01896554  0.56371723  0.41331980    -0.03600
N921        N  0.05127624  0.57805653  0.39821687    -0.61700
N922        N  0.02138943  0.52545329  0.41595405    -0.04300
N923        N  0.05514759  0.51318231  0.40263938    -0.61300
N924        N  0.92904765  0.55772703  0.42008805    -0.03200
N925        N  0.89611817  0.56796290  0.40344284    -0.62000
Mn926      Mn  0.98160125  0.49076490  0.45105946     1.10700
C927        C  0.87818931  0.53380000  0.39542413     1.01000
C928        C  0.07338378  0.54620330  0.39170943     1.01000
N929        N  0.02279632  0.63756990  0.50654311    -0.04300
N930        N  0.05479227  0.65652518  0.51612514    -0.59600
N931        N  0.92784002  0.63021468  0.47723399    -0.03600
N932        N  0.89531025  0.64775695  0.46550473    -0.56400
N933        N  0.93130946  0.63304654  0.51528592    -0.04900
N934        N  0.90116077  0.65236395  0.53008540    -0.59200
N935        N  0.01999008  0.63470186  0.46850651    -0.03900
N936        N  0.05035687  0.65162547  0.45138617    -0.56400
Mn937      Mn  0.98267193  0.60577950  0.54539220     1.20200
Mn938      Mn  0.97354397  0.59750028  0.44327416     1.10100
Cl939      Cl  0.98219020  0.54830511  0.49818950    -0.84400
C940        C  0.07183086  0.66539092  0.48161293     0.98000
C941        C  0.87860608  0.66162150  0.49877659     0.97800
N942        N  0.51028171  0.47248051  0.05061339    -0.04500
N943        N  0.52651483  0.45691179  0.08210444    -0.56600
N944        N  0.46529047  0.46241366  0.96391202    -0.04200
N945        N  0.45033463  0.44598497  0.93261994    -0.58800
N946        N  0.50345832  0.46514377  0.96072083    -0.03800
N947        N  0.51509684  0.45061538  0.92722972    -0.56600
N948        N  0.47201137  0.47035932  0.05303428    -0.03500
N949        N  0.46158622  0.45361956  0.08582073    -0.59100
C950        C  0.49555840  0.44536862  0.10384463     0.97700
C951        C  0.48171210  0.43879525  0.91016531     0.97400
N952        N  0.39199905  0.55625070  0.95920294    -0.04700
N953        N  0.37303917  0.56575976  0.92723231    -0.57200
N954        N  0.39997301  0.52721670  0.05398727    -0.02800
N955        N  0.38236326  0.51520438  0.08630236    -0.58500
N956        N  0.39689100  0.56523999  0.05052342    -0.04700
N957        N  0.37723645  0.57980397  0.08055697    -0.57500
N958        N  0.39489062  0.51820250  0.96210952    -0.02500
N959        N  0.37792277  0.50100768  0.93179799    -0.58600
Mn960      Mn  0.43220483  0.49319995  0.00864213     1.18400
C961        C  0.36414771  0.53122070  0.91026355     0.99700
C962        C  0.36814279  0.54827851  0.10291663     1.00400
N963        N  0.56552043  0.53095388  0.94800752    -0.04800
N964        N  0.58520467  0.51611673  0.91810938    -0.61100
N965        N  0.56770365  0.57837345  0.03625009    -0.03600
N966        N  0.58475781  0.59565490  0.06647962    -0.61700
N967        N  0.57052927  0.54032508  0.03927559    -0.04300
N968        N  0.58959451  0.53092299  0.07121669    -0.61300
N969        N  0.56249742  0.56899594  0.94429109    -0.03200
N970        N  0.58023817  0.58067187  0.91187445    -0.62000
Mn971      Mn  0.53863158  0.50099046  0.99973963     1.10700
C972        C  0.59443841  0.54740086  0.89548319     1.01000
C973        C  0.59857888  0.56550243  0.08806461     1.01000
N974        N  0.45874075  0.63078296  0.03814518    -0.04300
N975        N  0.44685495  0.64363028  0.07218792    -0.59600
N976        N  0.48998212  0.62634916  0.94555184    -0.03600
N977        N  0.49996034  0.64309470  0.91259020    -0.56400
N978        N  0.45173978  0.62412388  0.94831431    -0.04900
N979        N  0.43508756  0.63953659  0.91699278    -0.59200
N980        N  0.49695233  0.63355470  0.03534018    -0.03900
N981        N  0.51163616  0.64830168  0.06767080    -0.56400
Mn982      Mn  0.42370879  0.59536329  0.99894276     1.20200
Mn983      Mn  0.53016985  0.60331188  0.98987024     1.10100
Cl984      Cl  0.48122455  0.54822191  0.99922585    -0.84400
C985        C  0.48002051  0.65441693  0.09020147     0.98000
C986        C  0.46570918  0.65117042  0.89491215     0.97800
N987        N  0.50113033  0.10338729  0.58089641    -0.04500
N988        N  0.51282616  0.13577224  0.59872935    -0.56600
N989        N  0.47233489  0.00849535  0.58863069    -0.04200
N990        N  0.46285005  0.97683439  0.60813912    -0.58800
N991        N  0.51036922  0.01139039  0.58567123    -0.03800
N992        N  0.52757378  0.98130764  0.60306452    -0.56600
N993        N  0.46310311  0.09965109  0.58398389    -0.03500
N994        N  0.44829806  0.12946807  0.60379667    -0.59100
C995        C  0.47956996  0.15209291  0.61304463     0.97700
C996        C  0.49736742  0.95997992  0.61723805     0.97400
N997        N  0.40214412  0.99527923  0.49003825    -0.04700
N998        N  0.38512154  0.96262236  0.47957750    -0.57200
N999        N  0.39698244  0.08721986  0.52222310    -0.02800
N1000       N  0.38185236  0.12028453  0.53431560    -0.58500
N1001       N  0.39416422  0.08437374  0.48404011    -0.04700
N1002       N  0.37707028  0.11549422  0.46951118    -0.57500
N1003       N  0.40447931  0.99749383  0.52831517    -0.02500
N1004       N  0.38881646  0.96602620  0.54450162    -0.58600
Mn1005     Mn  0.43304361  0.04812020  0.55692343     1.18400
C1006       C  0.37695437  0.94450855  0.51354240     0.99700
C1007       C  0.36957833  0.13746036  0.50116678     1.00400
N1008       N  0.56547835  0.01260800  0.51449835    -0.04800
N1009       N  0.58112795  0.98061781  0.52896237    -0.61100
N1010       N  0.55595400  0.09991469  0.46991958    -0.03600
N1011       N  0.57136112  0.13131058  0.45337345    -0.61700
N1012       N  0.55830947  0.10247202  0.50816368    -0.04300
N1013       N  0.57514990  0.13538190  0.51824215    -0.61300
N1014       N  0.56256033  0.00987753  0.47629465    -0.03200
N1015       N  0.57619841  0.97615825  0.46419374    -0.62000
Mn1016     Mn  0.53530040  0.05791272  0.54816407     1.10700
C1017       C  0.58767944  0.95832178  0.49726139     1.01000
C1018       C  0.58313579  0.15322934  0.48403835     1.01000
N1019       N  0.44992171  0.08680799  0.41312395    -0.04300
N1020       N  0.43284438  0.11697158  0.39575122    -0.59600
N1021       N  0.49676143  0.99833100  0.41438841    -0.03600
N1022       N  0.51136632  0.96847308  0.39452400    -0.56400
N1023       N  0.45874954  0.99480473  0.41746104    -0.04900
N1024       N  0.44680156  0.96254581  0.39961373    -0.59200
N1025       N  0.48797203  0.08955274  0.41012130    -0.03900
N1026       N  0.49759559  0.12121306  0.39065990    -0.56400
Mn1027     Mn  0.42488326  0.03997503  0.45033397     1.20200
Mn1028     Mn  0.52703488  0.04951686  0.44160245     1.10100
Cl1029     Cl  0.48005418  0.04895728  0.49929021    -0.84400
C1030       C  0.46314130  0.13819973  0.38158511     0.98000
C1031       C  0.47992928  0.94607976  0.38526780     0.97800
O1032       O  0.15575747  0.39288638  0.29266794    -0.86600
C1033       C  0.19367630  0.17904102  0.30051173     1.13500
O1034       O  0.19675522  0.33307965  0.24278567    -1.34400
O1035       O  0.22937768  0.26033595  0.36573264    -0.88100
O1036       O  0.18462064  0.42070654  0.24106094    -0.88700
O1037       O  0.27642284  0.38416352  0.25760602    -0.77600
O1038       O  0.18597263  0.32301713  0.32884082    -0.99600
C1039       C  0.32664173  0.28183480  0.29079780     1.23500
O1040       O  0.26318501  0.30110495  0.21195475    -1.34500
Mn1041     Mn  0.20581754  0.27542111  0.21825275     1.82100
O1042       O  0.30963961  0.31428900  0.29478366    -0.76600
O1043       O  0.27724917  0.22555820  0.33837742    -0.86000
C1044       C  0.24914212  0.19918166  0.20173484     1.14600
C1045       C  0.26197855  0.24330061  0.36662465     1.09300
O1046       O  0.18351379  0.28671235  0.15990385    -0.77600
O1047       O  0.22929973  0.26796847  0.27689833    -1.31300
O1048       O  0.20965062  0.34282303  0.15716373    -0.96800
C1049       C  0.35430087  0.33512927  0.19292314     1.08000
Mn1050     Mn  0.27018733  0.22107921  0.27924761     1.48600
O1051       O  0.32650540  0.35284826  0.17588839    -0.86000
Mn1052     Mn  0.19407708  0.37823830  0.19939139     1.49600
O1053       O  0.10845761  0.33969167  0.24228981    -0.89900
C1054       C  0.20992334  0.34367261  0.34528034     1.21200
C1055       C  0.10615284  0.35274160  0.20791320     1.13300
Mn1056     Mn  0.25370133  0.32619603  0.26928345     1.81000
O1057       O  0.27285758  0.21536097  0.22280107    -0.95000
Mn1058     Mn  0.15071005  0.33408664  0.28488307     1.49300
C1059       C  0.17116703  0.42137179  0.27533219     1.09800
Mn1060     Mn  0.30900236  0.25860427  0.21209365     1.49900
C1061       C  0.28901622  0.26657911  0.12461389     1.12700
O1062       O  0.25112461  0.38676807  0.20097440    -1.00800
O1063       O  0.22675857  0.17927801  0.28424429    -0.90500
C1064       C  0.27040461  0.40300932  0.22631612     1.24000
O1065       O  0.31215688  0.25792376  0.26890052    -1.01200
O1066       O  0.17894846  0.20746080  0.31843797    -0.88600
O1067       O  0.30506282  0.25004339  0.15321883    -0.88200
O1068       O  0.13424835  0.36876115  0.18972333    -0.88200
Mn1069     Mn  0.18741543  0.26644209  0.32309734     1.47900
O1070       O  0.21804747  0.21777778  0.19477604    -0.76700
C1071       C  0.18988315  0.31787314  0.14095097     1.17000
O1072       O  0.24123279  0.35017934  0.32681389    -0.75400
O1073       O  0.14961657  0.25066138  0.22966718    -0.75000
Mn1074     Mn  0.26660283  0.34369782  0.16621785     1.51100
O1075       O  0.35171157  0.30107051  0.20688084    -0.87400
O1076       O  0.14663749  0.27744512  0.28557891    -0.94900
O1077       O  0.27548882  0.30084563  0.12472696    -0.89900
C1078       C  0.13231380  0.25531663  0.26182294     1.14800
C1079       C  0.67565578  0.65122659  0.77685660    -0.11700
C1080       C  0.66524143  0.61831972  0.78749676    -0.13200
C1081       C  0.79057055  0.61122519  0.68050398    -0.11700
C1082       C  0.78888404  0.63801528  0.70227941    -0.13200
C1083       C  0.56853034  0.84111861  0.67203242    -0.11700
C1084       C  0.59734081  0.82424496  0.68431696    -0.13200
C1085       C  0.53654834  0.72542425  0.79837465    -0.11700
C1086       C  0.56828236  0.74027952  0.79833029    -0.13200
C1087       C  0.75880309  0.73496982  0.61110502    -0.11700
C1088       C  0.77047010  0.72574453  0.57808476    -0.13200
C1089       C  0.67372417  0.84931096  0.59498293    -0.11700
C1090       C  0.65234108  0.85363296  0.56807161    -0.13200
C1091       C  0.92217451  0.74956782  0.82174948    -0.11700
C1092       C  0.89005727  0.74901877  0.80783798    -0.13200
C1093       C  0.89157433  0.87270615  0.70436740    -0.11700
C1094       C  0.86269813  0.86025270  0.72112212    -0.13200
C1095       C  0.68944402  0.96929257  0.81800520    -0.11700
C1096       C  0.70089865  0.93625962  0.80846423    -0.13200
C1097       C  0.81076241  0.97511440  0.69167670    -0.11700
C1098       C  0.78921758  0.94821330  0.69538658    -0.13200
C1099       C  0.79358385  0.76054817  0.92848561    -0.11700
C1100       C  0.78294736  0.77133445  0.89564243    -0.13200
C1101       C  0.67119064  0.87013375  0.93311086    -0.11700
C1102       C  0.67195349  0.84896918  0.90578267    -0.13200
C1103       C  0.78129664  0.63718156  0.30766953    -0.11700
C1104       C  0.78167488  0.60503981  0.32169944    -0.13200
C1105       C  0.66560944  0.66568815  0.22382374    -0.11700
C1106       C  0.65307305  0.63698579  0.20693714    -0.13200
C1107       C  0.57721019  0.73881702  0.19947042    -0.11700
C1108       C  0.55064477  0.71681781  0.19585015    -0.13200
C1109       C  0.59176017  0.82717226  0.31125428    -0.11700
C1110       C  0.55870378  0.83878779  0.32018428    -0.13200
C1111       C  0.67851833  0.85481741  0.40619329    -0.11700
C1112       C  0.65575563  0.85497753  0.43220192    -0.13200
C1113       C  0.76959203  0.73270493  0.42880129    -0.11700
C1114       C  0.75851605  0.74377959  0.39618345    -0.13200
C1115       C  0.67469403  0.85428747  0.09749958    -0.11700
C1116       C  0.67060427  0.87505111  0.07008813    -0.13200
C1117       C  0.78948249  0.76929755  0.11123186    -0.11700
C1118       C  0.79879958  0.75807735  0.07803937    -0.13200
C1119       C  0.68464758  0.95935489  0.17216354    -0.11700
C1120       C  0.70119045  0.93046866  0.18493693    -0.13200
C1121       C  0.78736953  0.95930539  0.29813266    -0.11700
C1122       C  0.80200484  0.99110741  0.29751282    -0.13200
C1123       C  0.87618687  0.85253371  0.27593734    -0.11700
C1124       C  0.90935227  0.86273251  0.28620044    -0.13200
C1125       C  0.88723736  0.74161127  0.19947749    -0.11700
C1126       C  0.91423579  0.74047902  0.17795802    -0.13200
C1127       C  0.20627360  0.66297217  0.68547836    -0.11700
C1128       C  0.19403849  0.63337545  0.67064734    -0.13200
C1129       C  0.29307957  0.60227435  0.80987202    -0.11700
C1130       C  0.28033622  0.63496981  0.80673404    -0.13200
C1131       C  0.36453218  0.73652031  0.77546816    -0.11700
C1132       C  0.39376889  0.72146590  0.78812571    -0.13200
C1133       C  0.39301210  0.85601270  0.69916354    -0.11700
C1134       C  0.42569204  0.85864877  0.68635394    -0.13200
C1135       C  0.29275477  0.82428515  0.61379690    -0.11700
C1136       C  0.30715227  0.83681547  0.58418150    -0.13200
C1137       C  0.17327754  0.73550244  0.55183254    -0.11700
C1138       C  0.17571830  0.74831574  0.58442234    -0.13200
C1139       C  0.09500593  0.77083099  0.80821528    -0.11700
C1140       C  0.06540230  0.75866848  0.82301629    -0.13200
C1141       C  0.06735129  0.84648347  0.68978107    -0.11700
C1142       C  0.03468171  0.85934719  0.68738175    -0.13200
C1143       C  0.28562144  0.96169965  0.79802951    -0.11700
C1144       C  0.28818017  0.99444371  0.81064907    -0.13200
C1145       C  0.15212316  0.96150006  0.70876890    -0.11700
C1146       C  0.16694336  0.93205881  0.72136994    -0.13200
C1147       C  0.26627213  0.87524836  0.91235740    -0.11700
C1148       C  0.25412668  0.86039673  0.88275378    -0.13200
C1149       C  0.17900236  0.74082110  0.91018909    -0.11700
C1150       C  0.16645207  0.73811414  0.94292968    -0.13200
C1151       C  0.78439198  0.44806849  0.68879940    -0.11700
C1152       C  0.78819345  0.47525136  0.66768902    -0.13200
C1153       C  0.66088221  0.46908911  0.78793145    -0.11700
C1154       C  0.67024555  0.43620673  0.77603523    -0.13200
C1155       C  0.57238182  0.35024369  0.80394157    -0.11700
C1156       C  0.54514216  0.37154747  0.80494315    -0.13200
C1157       C  0.58283911  0.27166018  0.69383084    -0.11700
C1158       C  0.54989127  0.26092366  0.68351143    -0.13200
C1159       C  0.67068564  0.24907794  0.58721268    -0.11700
C1160       C  0.65635217  0.24986815  0.55528055    -0.13200
C1161       C  0.75836435  0.36032100  0.61483820    -0.11700
C1162       C  0.77523261  0.37289896  0.58610090    -0.13200
C1163       C  0.77603539  0.13770300  0.68924814    -0.11700
C1164       C  0.79788359  0.11091600  0.68807572    -0.13200
C1165       C  0.70080299  0.15156415  0.80231079    -0.11700
C1166       C  0.69038549  0.11870969  0.81315929    -0.13200
C1167       C  0.88278259  0.34810084  0.80494995    -0.11700
C1168       C  0.90967446  0.35226786  0.82637438    -0.13200
C1169       C  0.90013650  0.22481274  0.70810915    -0.11700
C1170       C  0.86704888  0.23422322  0.71942260    -0.13200
C1171       C  0.79290399  0.32389221  0.88018472    -0.11700
C1172       C  0.80511058  0.34064098  0.90905163    -0.13200
C1173       C  0.67837350  0.24133129  0.90905168    -0.11700
C1174       C  0.67831370  0.22685338  0.94097586    -0.13200
C1175       C  0.68168438  0.46172974  0.19139958    -0.11700
C1176       C  0.66883306  0.49440387  0.18885818    -0.13200
C1177       C  0.75880051  0.43215515  0.31030727    -0.11700
C1178       C  0.77167415  0.46160198  0.32495115    -0.13200
C1179       C  0.79271084  0.35930435  0.44311328    -0.11700
C1180       C  0.78995749  0.34648669  0.41044771    -0.13200
C1181       C  0.65443210  0.25954165  0.41219695    -0.11700
C1182       C  0.66938394  0.27187472  0.38272396    -0.13200
C1183       C  0.66805098  0.10272501  0.18513841    -0.11700
C1184       C  0.67082535  0.13540487  0.19800497    -0.13200
C1185       C  0.80755349  0.13389832  0.28566215    -0.11700
C1186       C  0.79248056  0.16318967  0.27303082    -0.13200
C1187       C  0.78003853  0.35474277  0.08474291    -0.11700
C1188       C  0.79271197  0.35736668  0.05203190    -0.13200
C1189       C  0.70282096  0.23613409  0.11334976    -0.11700
C1190       C  0.69029629  0.22136382  0.08387987    -0.13200
C1191       C  0.03718545  0.34880632  0.17477835    -0.11700
C1192       C  0.06921676  0.34916811  0.18899816    -0.13200
C1193       C  0.86471554  0.32297710  0.18447495    -0.11700
C1194       C  0.89422875  0.33545648  0.16975330    -0.13200
C1195       C  0.09726890  0.23437404  0.27308745    -0.11700
C1196       C  0.06877027  0.22132709  0.28976023    -0.13200
C1197       C  0.89354084  0.24677073  0.30316124    -0.11700
C1198       C  0.92618654  0.23412987  0.30599630    -0.13200
C1199       C  0.40957205  0.83734396  0.31421362    -0.11700
C1200       C  0.37705217  0.82610948  0.30311112    -0.13200
C1201       C  0.41471078  0.72309016  0.19232319    -0.11700
C1202       C  0.38836982  0.74555693  0.19202495    -0.13200
C1203       C  0.20560904  0.73384573  0.38065111    -0.11700
C1204       C  0.18923354  0.72102262  0.40940242    -0.13200
C1205       C  0.28812787  0.84917016  0.40902842    -0.11700
C1206       C  0.30207581  0.84929948  0.44117432    -0.13200
C1207       C  0.09231417  0.85667892  0.27611470    -0.11700
C1208       C  0.05914632  0.86610919  0.28725967    -0.13200
C1209       C  0.05097610  0.73876289  0.17186428    -0.11700
C1210       C  0.07854960  0.74217387  0.19249822    -0.13200
C1211       C  0.15523713  0.75339396  0.08632906    -0.11700
C1212       C  0.16771712  0.76948265  0.11547737    -0.13200
C1213       C  0.28046351  0.85454160  0.08685599    -0.11700
C1214       C  0.27965108  0.86959735  0.05518739    -0.13200
C1215       C  0.26804244  0.12559409  0.17847050    -0.11700
C1216       C  0.25712046  0.15880560  0.18765230    -0.13200
C1217       C  0.26800533  0.97613967  0.18273700    -0.11700
C1218       C  0.25775007  0.94310613  0.19322892    -0.13200
C1219       C  0.14916962  0.11802877  0.30158154    -0.11700
C1220       C  0.17053706  0.14520591  0.29854493    -0.13200
C1221       C  0.15805277  0.98176126  0.30412833    -0.11700
C1222       C  0.18023459  0.95518443  0.30378783    -0.13200
C1223       C  0.30602642  0.45892797  0.79362854    -0.11700
C1224       C  0.29321194  0.43014882  0.77696837    -0.13200
C1225       C  0.18046506  0.45851010  0.68941489    -0.11700
C1226       C  0.18149394  0.49033858  0.67480239    -0.13200
C1227       C  0.36716921  0.26938809  0.68941007    -0.11700
C1228       C  0.40034246  0.25835004  0.67997150    -0.13200
C1229       C  0.38039880  0.35466855  0.80353672    -0.11700
C1230       C  0.40799707  0.37527979  0.80712116    -0.13200
C1231       C  0.27052732  0.13705215  0.82561775    -0.11700
C1232       C  0.25386294  0.16582147  0.81309146    -0.13200
C1233       C  0.17126161  0.13670024  0.69772697    -0.11700
C1234       C  0.15692626  0.10469380  0.69769517    -0.13200
C1235       C  0.08222357  0.24313421  0.71969556    -0.11700
C1236       C  0.04950948  0.23195724  0.70902984    -0.13200
C1237       C  0.04548976  0.35414837  0.82097487    -0.11700
C1238       C  0.07153842  0.35405395  0.79827048    -0.13200
C1239       C  0.28390836  0.22142149  0.06446728    -0.11700
C1240       C  0.28451008  0.24380507  0.09089136    -0.13200
C1241       C  0.28171804  0.21788881  0.92827877    -0.11700
C1242       C  0.27817800  0.23979415  0.90164653    -0.13200
C1243       C  0.16309146  0.33660076  0.06844685    -0.11700
C1244       C  0.17434676  0.32559548  0.10101548    -0.13200
C1245       C  0.16642872  0.32666168  0.88606682    -0.11700
C1246       C  0.15735078  0.33780708  0.91921719    -0.13200
C1247       C  0.59572731  0.36053794  0.22350340    -0.11700
C1248       C  0.56586954  0.37481782  0.21130644    -0.13200
C1249       C  0.42284392  0.36937343  0.19758271    -0.11700
C1250       C  0.39110339  0.35442188  0.19677901    -0.13200
C1251       C  0.53471791  0.23958293  0.31207952    -0.11700
C1252       C  0.56735524  0.24229733  0.29914353    -0.13200
C1253       C  0.39135211  0.25504542  0.32405753    -0.11700
C1254       C  0.36222824  0.27096491  0.31128150    -0.13200
C1255       C  0.28517396  0.44327107  0.21929271    -0.11700
C1256       C  0.29584660  0.47624524  0.20909039    -0.13200
C1257       C  0.29189217  0.65878610  0.22068278    -0.11700
C1258       C  0.30090860  0.62559911  0.20960342    -0.13200
C1259       C  0.17468990  0.48167763  0.32006608    -0.11700
C1260       C  0.17487623  0.45563618  0.29728285    -0.13200
C1261       C  0.17809367  0.61739434  0.32886148    -0.11700
C1262       C  0.18116202  0.64431101  0.30721829    -0.13200
C1263       C  0.19124909  0.36705870  0.41916955    -0.11700
C1264       C  0.20195047  0.35779134  0.38581445    -0.13200
C1265       C  0.19265360  0.36293558  0.56897986    -0.11700
C1266       C  0.20279184  0.35233899  0.60203519    -0.13200
C1267       C  0.30425159  0.24031254  0.42880168    -0.11700
C1268       C  0.28379799  0.24411207  0.40116076    -0.09800
C1269       C  0.30223295  0.24191933  0.56553874    -0.11700
C1270       C  0.28063414  0.24234438  0.59244867    -0.13200
loop_ 
_geom_bond_atom_site_label_1 
_geom_bond_atom_site_label_2 
_geom_bond_distance 
_geom_bond_site_symmetry_2 
_ccdc_geom_bond_type 
C1            C2   1.392       .  A
C1            C6   1.384       .  A
C1         C1269   1.404       .  S
C2            C3   1.395       .  A
C2            H7   1.085       .  S
C3            C4   1.398       .  A
C3         C1007   1.458       .  S
C4            C5   1.395       .  A
C4            H8   1.084       .  S
C5            C6   1.385       .  A
C5         C1267   1.408       .  S
C6            H9   1.087       .  S
C10          C11   1.431       .  A
C10          C15   1.421       .  A
C10        C1263   1.503       .  S
C11          C12   1.430       .  A
C11          H16   1.083       .  S
C12          C13   1.416       .  A
C12        C1265   1.498       .  S
C13          C14   1.418       .  A
C13          H17   1.084       .  S
C14          C15   1.423       .  A
C14         C905   1.521       .  S
C15          H18   1.083       .  S
C19          C20   1.385       .  A
C19          C24   1.393       .  A
C19        C1259   1.409       .  S
C20          C21   1.387       .  A
C20          H25   1.087       .  S
C21          C22   1.397       .  A
C21        C1261   1.411       .  S
C22          C23   1.399       .  A
C22          H26   1.084       .  S
C23          C24   1.398       .  A
C23         C928   1.461       .  S
C24          H27   1.085       .  S
C28          C29   1.428       .  A
C28          C33   1.415       .  A
C28        C1256   1.495       .  S
C29          C30   1.428       .  A
C29          H34   1.083       .  S
C30          C31   1.419       .  A
C30        C1258   1.497       .  S
C31          C32   1.420       .  A
C31          H35   1.083       .  S
C32          C33   1.418       .  A
C32         C962   1.518       .  S
C33          H36   1.084       .  S
C37          C38   1.403       .  A
C37          C42   1.390       .  A
C37        C1251   1.443       .  S
C38          C39   1.409       .  A
C38          H43   1.084       .  S
C39          C40   1.423       .  A
C39        C1253   1.464       .  S
C40          C41   1.419       .  A
C40          H44   1.083       .  S
C41          C42   1.402       .  A
C41        C1030   1.496       .  S
C42          H45   1.085       .  S
C46          C47   1.388       .  A
C46          C51   1.400       .  A
C46        C1249   1.435       .  S
C47          C48   1.401       .  A
C47          H52   1.085       .  S
C48          C49   1.410       .  A
C48         C950   1.481       .  S
C49          C50   1.413       .  A
C49          H53   1.084       .  S
C50          C51   1.406       .  A
C50        C1248   1.448       .  S
C51          H54   1.084       .  S
C55          C56   1.419       .  A
C55          C60   1.428       .  A
C55        C1246   1.498       .  S
C56          C57   1.421       .  A
C56          H61   1.083       .  S
C57          C58   1.420   1_556  A
C57         C618   1.520       .  S
C58          C59   1.418       .  A
C58          H62   1.084       .  S
C59          C60   1.428   1_554  A
C59        C1243   1.498       .  S
C60          H63   1.083       .  S
C64          C65   1.388       .  A
C64          C69   1.398       .  A
C64        C1241   1.411       .  S
C65          C66   1.385   1_556  A
C65          H70   1.086       .  S
C66          C67   1.391       .  A
C66        C1239   1.410       .  S
C67          C68   1.397   1_554  A
C67          H71   1.085       .  S
C68          C69   1.399       .  A
C68         C651   1.461       .  S
C69          H72   1.084       .  S
O73         C100   1.263       .  A
O73         Mn99   2.062       .  S
C74        C1270   1.398       .  S
C74         O107   1.262       .  A
C74         O104   1.259       .  A
O75         Mn82   2.169       .  S
O75         Mn93   2.142       .  S
O75         Mn97   2.168       .  S
O75         Mn99   2.150       .  S
O76          C86   1.273       .  A
O76        Mn110   2.106       .  S
O77         C100   1.259       .  A
O77         Mn93   2.040       .  S
O78         C105   1.266       .  A
O78         Mn97   2.178       .  S
O79        Mn110   1.968       .  S
O79         Mn99   1.980       .  S
O79          C95   1.226       .  S
C80        C1232   1.454       .  S
C80          O83   1.265       .  A
C80         O106   1.218       .  S
O81        Mn101   2.135       .  S
O81         Mn82   2.180       .  S
O81        Mn115   2.137       .  S
O81         Mn97   2.181       .  S
Mn82        O111   2.180       .  S
Mn82         O87   2.156       .  S
Mn82        O114   2.176       .  S
Mn82         O88   2.172       .  S
O83         Mn97   2.147       .  S
O84          C86   1.265       .  A
O84         Mn91   2.069       .  S
C85        C1227   1.497       .  S
C85         O111   1.266       .  A
C85          O98   1.222       .  S
C86        C1233   1.429       .  S
O87         C112   1.267       .  A
O88         Mn91   2.143       .  S
O88        Mn110   2.149       .  S
O88         Mn97   2.170       .  S
O89         Mn93   1.953       .  S
O89        Mn115   1.945       .  S
O89         C112   1.218       .  S
C90        C1242   1.405       .  S
C90         O116   1.260       .  A
C90          O92   1.264       .  A
Mn91        O104   2.041       .  S
Mn91        O106   1.950       .  S
Mn91         O98   1.965       .  S
O92        Mn115   2.070       .  S
Mn93        O109   2.068       .  S
Mn93        O103   1.965       .  S
O94          C96   1.273       .  A
O94         Mn99   2.104       .  S
C95        C1235   1.494       .  S
C95         O113   1.270       .  A
C96        C1225   1.428       .  S
C96         O109   1.265       .  A
Mn97        O113   2.175       .  S
O98        Mn101   1.950       .  S
Mn99        O117   1.968       .  S
C100       C1238   1.400       .  S
Mn101       O108   2.063       .  S
Mn101       O116   2.051       .  S
Mn101       O106   1.943       .  S
C102       C1229   1.403       .  S
C102        O108   1.263       .  A
C102        O118   1.260       .  A
O103       Mn115   1.947       .  S
O103        C105   1.221       .  S
C105       C1245   1.493       .  S
O107       Mn110   2.058       .  S
Mn110       O117   1.979       .  S
C112       C1224   1.461       .  S
O114        C119   1.271       .  A
Mn115       O118   2.052       .  S
O117        C119   1.227       .  S
C119       C1266   1.493       .  S
C120        C121   1.392       .  A
C120        C125   1.386       .  A
C120       C1221   1.410   1_545  S
C121        C122   1.397       .  A
C121        H126   1.085   1_545  S
C122        C123   1.400       .  A
C122        C573   1.462       .  S
C123        C124   1.397       .  A
C123        H127   1.084       .  S
C124        C125   1.388       .  A
C124       C1219   1.412       .  S
C125        H128   1.086       .  S
C129        C130   1.428       .  A
C129        C134   1.416       .  A
C129       C1217   1.496   1_545  S
C130        C131   1.428       .  A
C130        H135   1.083       .  S
C131        C132   1.419       .  A
C131       C1215   1.498       .  S
C132        C133   1.421       .  A
C132        H136   1.083       .  S
C133        C134   1.419       .  A
C133        C663   1.521       .  S
C134        H137   1.084   1_545  S
O138        C165   1.266       .  A
O138       Mn164   2.072       .  S
C139       C1262   1.406       .  S
C139        O172   1.265       .  A
C139        O169   1.260       .  A
O140       Mn147   2.168       .  S
O140       Mn158   2.146       .  S
O140       Mn162   2.172       .  S
O140       Mn164   2.145       .  S
O141        C151   1.259       .  A
O141       Mn175   2.048       .  S
O142        C165   1.273       .  A
O142       Mn158   2.105       .  S
O143        C170   1.270       .  A
O143       Mn162   2.174       .  S
O144       Mn175   1.947       .  S
O144       Mn164   1.951       .  S
O144        C160   1.218       .  S
C145       C1207   1.499       .  S
C145        O148   1.267       .  A
C145        O171   1.222       .  S
O146       Mn166   2.143       .  S
O146       Mn147   2.173       .  S
O146       Mn180   2.149       .  S
O146       Mn162   2.169       .  S
Mn147       O176   2.143       .  S
Mn147       O152   2.176       .  S
Mn147       O179   2.178       .  S
Mn147       O153   2.181       .  S
O148       Mn162   2.183       .  S
O149        C151   1.264       .  A
O149       Mn156   2.065       .  S
C150       C1203   1.452       .  S
C150        O176   1.264       .  A
C150        O163   1.218       .  S
C151       C1210   1.402       .  S
O152        C177   1.269       .  A
O153       Mn156   2.138       .  S
O153       Mn175   2.138       .  S
O153       Mn162   2.181       .  S
O154       Mn158   1.979       .  S
O154       Mn180   1.967       .  S
O154        C177   1.225       .  S
C155       C1222   1.404       .  S
C155        O181   1.260       .  A
C155        O157   1.264       .  A
Mn156       O169   2.051       .  S
Mn156       O171   1.952       .  S
Mn156       O163   1.942       .  S
O157       Mn180   2.068       .  S
Mn158       O174   2.070       .  S
Mn158       O168   1.972       .  S
O159        C161   1.260       .  A
O159       Mn164   2.044       .  S
C160       C1212   1.456       .  S
C160        O178   1.265       .  A
C161       C1202   1.404       .  S
C161        O174   1.264       .  A
Mn162       O178   2.149       .  S
O163       Mn166   1.951       .  S
Mn164       O182   1.965       .  S
C165       C1213   1.431       .  S
Mn166       O173   2.068       .  S
Mn166       O181   2.046       .  S
Mn166       O171   1.967       .  S
C167       C1205   1.429       .  S
C167        O173   1.264       .  A
C167        O183   1.273       .  A
O168       Mn180   1.979       .  S
O168        C170   1.226       .  S
C170       C1218   1.491       .  S
O172       Mn175   2.072       .  S
Mn175       O182   1.946       .  S
C177       C1200   1.492       .  S
O179        C184   1.266       .  A
Mn180       O183   2.105       .  S
O182        C184   1.220       .  S
C184       C1257   1.492       .  S
C185        C186   1.389       .  A
C185        C190   1.400       .  A
C185       C1198   1.439       .  S
C186        C187   1.401       .  A
C186        H191   1.085       .  S
C187        C188   1.420   1_655  A
C187        C596   1.496       .  S
C188        C189   1.423       .  A
C188        H192   1.083       .  S
C189        C190   1.406   1_455  A
C189       C1196   1.460       .  S
C190        H193   1.085       .  S
C194        C195   1.405       .  A
C194        C199   1.413       .  A
C194       C1194   1.446       .  S
C195        C196   1.399   1_655  A
C195        H200   1.084       .  S
C196        C197   1.388   1_455  A
C196       C1191   1.433       .  S
C197        C198   1.400       .  A
C197        H201   1.085   1_655  S
C198        C199   1.410       .  A
C198        C606   1.481       .  S
C199        H202   1.084       .  S
O203        C230   1.274       .  A
O203       Mn229   2.113       .  S
C204       C1252   1.439       .  S
C204        O237   1.275       .  A
C204        O234   1.266       .  A
O205       Mn212   2.165       .  S
O205       Mn223   2.134       .  S
O205       Mn227   2.165       .  S
O205       Mn229   2.134       .  S
O206        C216   1.266       .  A
O206       Mn240   2.078       .  S
O207        C230   1.265       .  A
O207       Mn223   2.072       .  S
O208        C235   1.253       .  A
O208       Mn227   2.110       .  S
O209       Mn240   1.974       .  S
O209       Mn229   1.951       .  S
O209        C225   1.217       .  S
C210       C1189   1.441       .  S
C210        O213   1.253       .  A
C210        O236   1.218       .  S
O211       Mn231   2.133       .  S
O211       Mn212   2.165       .  S
O211       Mn245   2.135       .  S
O211       Mn227   2.165       .  S
Mn212       O241   2.113       .  S
Mn212       O217   2.115       .  S
Mn212       O244   2.111       .  S
Mn212       O218   2.167       .  S
O213       Mn227   2.109       .  S
O214        C216   1.275       .  A
O214       Mn221   2.116       .  S
C215       C1247   1.442       .  S
C215        O241   1.254       .  A
C215        O228   1.217       .  S
C216       C1184   1.440       .  S
O217        C242   1.254       .  A
O218       Mn221   2.135       .  S
O218       Mn240   2.134       .  S
O218       Mn227   2.165       .  S
O219       Mn223   1.950       .  S
O219       Mn245   1.973       .  S
O219        C242   1.217       .  S
C220       C1187   1.438       .  S
C220        O246   1.266       .  A
C220        O222   1.274       .  A
Mn221       O234   2.078       .  S
Mn221       O236   1.953       .  S
Mn221       O228   1.972       .  S
O222       Mn245   2.113       .  S
Mn223       O239   2.115       .  S
Mn223       O233   1.972       .  S
O224        C226   1.266       .  A
O224       Mn229   2.076       .  S
C225       C1186   1.442       .  S
C225        O243   1.253       .  A
C226       C1180   1.438       .  S
C226        O239   1.275       .  A
Mn227       O243   2.112       .  S
O228       Mn231   1.953       .  S
Mn229       O247   1.972       .  S
C230       C1197   1.434       .  S
Mn231       O238   2.116       .  S
Mn231       O246   2.078       .  S
Mn231       O236   1.975       .  S
C232       C1175   1.439       .  S
C232        O238   1.275       .  A
C232        O248   1.266       .  A
O233       Mn245   1.951       .  S
O233        C235   1.217       .  S
C235       C1193   1.441       .  S
O237       Mn240   2.116       .  S
Mn240       O247   1.952       .  S
C242       C1177   1.443       .  S
O244        C249   1.254       .  A
Mn245       O248   2.077       .  S
O247        C249   1.217       .  S
C249       C1182   1.442       .  S
C250        C251   1.388       .  A
C250        C255   1.398   1_556  A
C250       C1174   1.434       .  S
C251        C252   1.400   1_556  A
C251        H256   1.085       .  S
C252        C253   1.410       .  A
C252        C652   1.481       .  S
C253        C254   1.414       .  A
C253        H257   1.084       .  S
C254        C255   1.405       .  A
C254       C1190   1.447       .  S
C255        H258   1.084       .  S
C259        C260   1.401   1_554  A
C259        C264   1.389       .  A
C259       C1188   1.442       .  S
C260        C261   1.408       .  A
C260        H265   1.084       .  S
C261        C262   1.423       .  A
C261       C1172   1.462       .  S
C262        C263   1.419       .  A
C262        H266   1.083       .  S
C263        C264   1.402   1_556  A
C263        C629   1.495       .  S
C264        H267   1.085       .  S
C268        C269   1.422       .  A
C268        C273   1.429       .  A
C268       C1169   1.502       .  S
C269        C270   1.424       .  A
C269        H274   1.083       .  S
C270        C271   1.419   1_655  A
C270        C597   1.522       .  S
C271        C272   1.417       .  A
C271        H275   1.084       .  S
C272        C273   1.429   1_455  A
C272       C1236   1.498       .  S
C273        H276   1.083       .  S
C277        C278   1.393       .  A
C277        C282   1.384   1_455  A
C277       C1237   1.406       .  S
C278        C279   1.397   1_455  A
C278        H283   1.085       .  S
C279        C280   1.400       .  A
C279        C641   1.462       .  S
C280        C281   1.397       .  A
C280        H284   1.084       .  S
C281        C282   1.385       .  A
C281       C1168   1.410       .  S
C282        H285   1.087       .  S
O286        C313   1.260       .  A
O286       Mn312   2.049       .  S
C287       C1155   1.404       .  S
C287        O320   1.260       .  A
C287        O317   1.263       .  A
O288       Mn295   2.179       .  S
O288       Mn306   2.138       .  S
O288       Mn310   2.177       .  S
O288       Mn312   2.135       .  S
O289        C299   1.265       .  A
O289       Mn323   2.072       .  S
O290        C313   1.264       .  A
O290       Mn306   2.069       .  S
O291        C318   1.267       .  A
O291       Mn310   2.184       .  S
O292       Mn323   1.950       .  S
O292       Mn312   1.945       .  S
O292        C308   1.217       .  S
C293       C1165   1.490       .  S
C293        O296   1.269       .  A
C293        O319   1.227       .  S
O294       Mn314   2.150       .  S
O294       Mn295   2.174       .  S
O294       Mn328   2.142       .  S
O294       Mn310   2.171       .  S
Mn295       O324   2.178       .  S
Mn295       O300   2.155       .  S
Mn295       O327   2.185       .  S
Mn295       O301   2.173       .  S
O296       Mn310   2.169       .  S
O297        C299   1.273       .  A
O297       Mn304   2.104       .  S
C298       C1157   1.492       .  S
C298        O324   1.270       .  A
C298        O311   1.225       .  S
C299       C1173   1.430       .  S
O300        C325   1.267       .  A
O301       Mn304   2.147       .  S
O301       Mn323   2.144       .  S
O301       Mn310   2.174       .  S
O302       Mn306   1.944       .  S
O302       Mn328   1.952       .  S
O302        C325   1.218       .  S
C303       C1163   1.402       .  S
C303        O329   1.263       .  A
C303        O305   1.260       .  A
Mn304       O317   2.067       .  S
Mn304       O319   1.974       .  S
Mn304       O311   1.973       .  S
O305       Mn328   2.045       .  S
Mn306       O322   2.047       .  S
Mn306       O316   1.950       .  S
O307        C309   1.265       .  A
O307       Mn312   2.068       .  S
C308       C1171   1.455       .  S
C308        O326   1.266       .  A
C309       C1151   1.403       .  S
C309        O322   1.259       .  A
Mn310       O326   2.150       .  S
O311       Mn314   1.964       .  S
Mn312       O330   1.948       .  S
C313       C1167   1.404       .  S
Mn314       O321   2.103       .  S
Mn314       O329   2.065       .  S
Mn314       O319   1.981       .  S
C315       C1159   1.427       .  S
C315        O321   1.273       .  A
C315        O331   1.265       .  A
O316       Mn328   1.965       .  S
O316        C318   1.220       .  S
C318       C1170   1.497       .  S
O320       Mn323   2.046       .  S
Mn323       O330   1.961       .  S
C325       C1161   1.460       .  S
O327        C332   1.267       .  A
Mn328       O331   2.068       .  S
O330        C332   1.220       .  S
C332       C1154   1.496       .  S
C333        C334   1.389       .  A
C333        C338   1.402   1_556  A
C333       C1150   1.441       .  S
C334        C335   1.401   1_556  A
C334        H339   1.085       .  S
C335        C336   1.419       .  A
C335        C617   1.495       .  S
C336        C337   1.423       .  A
C336        H340   1.083       .  S
C337        C338   1.409       .  A
C337       C1211   1.463       .  S
C338        H341   1.084       .  S
C342        C343   1.388       .  A
C342        C347   1.399   1_554  A
C342       C1214   1.435       .  S
C343        C344   1.401   1_554  A
C343        H348   1.085       .  S
C344        C345   1.410       .  A
C344        C686   1.481       .  S
C345        C346   1.414       .  A
C345        H349   1.084       .  S
C346        C347   1.405       .  A
C346       C1147   1.447       .  S
C347        H350   1.084       .  S
C351        C352   1.413       .  A
C351        C356   1.405   1_565  A
C351       C1145   1.448       .  S
C352        C353   1.411   1_565  A
C352        H357   1.084       .  S
C353        C354   1.399       .  A
C353        C572   1.480       .  S
C354        C355   1.388       .  A
C354        H358   1.085       .  S
C355        C356   1.399       .  A
C355       C1234   1.433       .  S
C356        H359   1.084       .  S
C360        C361   1.389       .  A
C360        C365   1.401       .  A
C360       C1144   1.441   1_545  S
C361        C362   1.401       .  A
C361        H366   1.085       .  S
C362        C363   1.420       .  A
C362        C674   1.496       .  S
C363        C364   1.423       .  A
C363        H367   1.083       .  S
C364        C365   1.408       .  A
C364       C1231   1.462       .  S
C365        H368   1.085       .  S
O369        C396   1.266       .  A
O369       Mn395   2.079       .  S
C370       C1149   1.437       .  S
C370        O403   1.265       .  A
C370        O400   1.275       .  A
O371       Mn378   2.165       .  S
O371       Mn389   2.134       .  S
O371       Mn393   2.165       .  S
O371       Mn395   2.133       .  S
O372        C382   1.275       .  A
O372       Mn406   2.118       .  S
O373        C396   1.274       .  A
O373       Mn389   2.114       .  S
O374        C401   1.253       .  A
O374       Mn393   2.108       .  S
O375       Mn406   1.951       .  S
O375       Mn395   1.974       .  S
O375        C391   1.217       .  S
C376       C1127   1.442       .  S
C376        O379   1.253       .  A
C376        O402   1.217       .  S
O377       Mn397   2.133       .  S
O377       Mn378   2.164       .  S
O377       Mn411   2.134       .  S
O377       Mn393   2.165       .  S
Mn378       O407   2.109       .  S
Mn378       O383   2.112       .  S
Mn378       O410   2.111       .  S
Mn378       O384   2.165       .  S
O379       Mn393   2.112       .  S
O380        C382   1.266       .  A
O380       Mn387   2.078       .  S
C381       C1139   1.441       .  S
C381        O407   1.253       .  A
C381        O394   1.217       .  S
C382       C1130   1.440       .  S
O383        C408   1.254       .  A
O384       Mn387   2.135       .  S
O384       Mn406   2.134       .  S
O384       Mn393   2.164       .  S
O385       Mn389   1.972       .  S
O385       Mn411   1.949       .  S
O385        C408   1.217       .  S
C386       C1138   1.433       .  S
C386        O412   1.274       .  A
C386        O388   1.264       .  A
Mn387       O400   2.114       .  S
Mn387       O402   1.973       .  S
Mn387       O394   1.952       .  S
O388       Mn411   2.071       .  S
Mn389       O405   2.075       .  S
Mn389       O399   1.950       .  S
O390        C392   1.274       .  A
O390       Mn395   2.115       .  S
C391       C1131   1.440       .  S
C391        O409   1.253       .  A
C392       C1143   1.437       .  S
C392        O405   1.265       .  A
Mn393       O409   2.108       .  S
O394       Mn397   1.971       .  S
Mn395       O413   1.953       .  S
C396       C1133   1.439       .  S
Mn397       O404   2.077       .  S
Mn397       O412   2.111       .  S
Mn397       O402   1.953       .  S
C398       C1141   1.438       .  S
C398        O404   1.266       .  A
C398        O414   1.274       .  A
O399       Mn411   1.970       .  S
O399        C401   1.217       .  S
C401       C1135   1.439       .  S
O403       Mn406   2.074       .  S
Mn406       O413   1.974       .  S
C408       C1146   1.442       .  S
O410        C415   1.254       .  A
Mn411       O414   2.113       .  S
O413        C415   1.218       .  S
C415       C1148   1.442       .  S
C416        C417   1.392       .  A
C416        C421   1.385       .  A
C416       C1126   1.406       .  S
C417        C418   1.395       .  A
C417        H422   1.085       .  S
C418        C419   1.399   1_655  A
C418        C607   1.458       .  S
C419        C420   1.395       .  A
C419        H423   1.084       .  S
C420        C421   1.386   1_455  A
C420       C1209   1.408       .  S
C421        H424   1.087       .  S
C425        C426   1.430       .  A
C425        C430   1.416       .  A
C425       C1124   1.498       .  S
C426        C427   1.430   1_655  A
C426        H431   1.083       .  S
C427        C428   1.422       .  A
C427       C1208   1.503       .  S
C428        C429   1.424   1_455  A
C428        H432   1.083       .  S
C429        C430   1.419       .  A
C429        C561   1.523       .  S
C430        H433   1.084       .  S
C434        C435   1.404       .  A
C434        C439   1.414       .  A
C434       C1185   1.447       .  S
C435        C436   1.398       .  A
C435        H440   1.084       .  S
C436        C437   1.387       .  A
C436       C1122   1.430   1_545  S
C437        C438   1.398       .  A
C437        H441   1.085       .  S
C438        C439   1.412       .  A
C438        C584   1.481       .  S
C439        H442   1.084       .  S
C443        C444   1.410   1_565  A
C443        C448   1.425       .  A
C443       C1119   1.469       .  S
C444        C445   1.403       .  A
C444        H449   1.084       .  S
C445        C446   1.389       .  A
C445       C1183   1.444       .  S
C446        C447   1.401       .  A
C446        H450   1.085       .  S
C447        C448   1.422   1_545  A
C447        C662   1.497       .  S
C448        H451   1.083       .  S
O452        C479   1.260       .  A
O452       Mn478   2.051       .  S
C453       C1125   1.400       .  S
C453        O486   1.260       .  A
C453        O483   1.262       .  A
O454       Mn461   2.180       .  S
O454       Mn472   2.137       .  S
O454       Mn476   2.181       .  S
O454       Mn478   2.136       .  S
O455        C465   1.265       .  A
O455       Mn489   2.071       .  S
O456        C479   1.265       .  A
O456       Mn472   2.071       .  S
O457        C484   1.267       .  A
O457       Mn476   2.184       .  S
O458       Mn489   1.952       .  S
O458       Mn478   1.944       .  S
O458        C474   1.218       .  S
C459       C1114   1.495       .  S
C459        O462   1.270       .  A
C459        O485   1.226       .  S
O460       Mn480   2.148       .  S
O460       Mn461   2.170       .  S
O460       Mn494   2.144       .  S
O460       Mn476   2.170       .  S
Mn461       O490   2.177       .  S
Mn461       O466   2.158       .  S
Mn461       O493   2.184       .  S
Mn461       O467   2.173       .  S
O462       Mn476   2.179       .  S
O463        C465   1.273       .  A
O463       Mn470   2.106       .  S
C464       C1123   1.494       .  S
C464        O490   1.271       .  A
C464        O477   1.227       .  S
C465       C1103   1.430       .  S
O466        C491   1.268       .  A
O467       Mn470   2.151       .  S
O467       Mn489   2.142       .  S
O467       Mn476   2.174       .  S
O468       Mn472   1.947       .  S
O468       Mn494   1.953       .  S
O468        C491   1.218       .  S
C469       C1111   1.400       .  S
C469        O495   1.263       .  A
C469        O471   1.259       .  A
Mn470       O483   2.061       .  S
Mn470       O485   1.966       .  S
Mn470       O477   1.979       .  S
O471       Mn494   2.039       .  S
Mn472       O488   2.049       .  S
Mn472       O482   1.945       .  S
O473        C475   1.264       .  A
O473       Mn478   2.066       .  S
C474       C1105   1.457       .  S
C474        O492   1.266       .  A
C475       C1115   1.403       .  S
C475        O488   1.260       .  A
Mn476       O492   2.152       .  S
O477       Mn480   1.971       .  S
Mn478       O496   1.950       .  S
C479       C1107   1.406       .  S
Mn480       O487   2.103       .  S
Mn480       O495   2.065       .  S
Mn480       O485   1.979       .  S
C481       C1121   1.426       .  S
C481        O487   1.273       .  A
C481        O497   1.264       .  A
O482       Mn494   1.961       .  S
O482        C484   1.220       .  S
C484       C1109   1.494       .  S
O486       Mn489   2.044       .  S
Mn489       O496   1.967       .  S
C491       C1120   1.462       .  S
O493        C498   1.267       .  A
Mn494       O497   2.066       .  S
O496        C498   1.222       .  S
C498       C1117   1.500       .  S
C499        C500   1.387       .  A
C499        C504   1.397       .  A
C499       C1116   1.410       .  S
C500        C501   1.385   1_554  A
C500        H505   1.086       .  S
C501        C502   1.391       .  A
C501       C1101   1.407       .  S
C502        C503   1.395       .  A
C502        H506   1.085       .  S
C503        C504   1.399   1_556  A
C503        C687   1.458       .  S
C504        H507   1.084       .  S
C508        C509   1.429   1_556  A
C508        C513   1.417       .  A
C508       C1099   1.498       .  S
C509        C510   1.429       .  A
C509        H514   1.083       .  S
C510        C511   1.423       .  A
C510       C1118   1.505       .  S
C511        C512   1.425       .  A
C511        H515   1.083       .  S
C512        C513   1.419   1_554  A
C512        C628   1.526   1_554  S
C513        H516   1.084       .  S
C517        C518   1.392       .  A
C517        C522   1.384       .  A
C517       C1164   1.409       .  S
C518        C519   1.396       .  A
C518        H523   1.085       .  S
C519        C520   1.401       .  A
C519        C583   1.461       .  S
C520        C521   1.398       .  A
C520        H524   1.084   1_545  S
C521        C522   1.386       .  A
C521       C1097   1.410   1_545  S
C522        H525   1.087       .  S
C526        C527   1.428       .  A
C526        C531   1.416       .  A
C526       C1166   1.495       .  S
C527        C528   1.428       .  A
C527        H532   1.083       .  S
C528        C529   1.423       .  A
C528       C1095   1.503   1_545  S
C529        C530   1.425       .  A
C529        H533   1.083   1_545  S
C530        C531   1.418       .  A
C530        C673   1.525       .  S
C531        H534   1.084       .  S
C535        C536   1.403       .  A
C535        C540   1.390       .  A
C535       C1142   1.443   1_655  S
C536        C537   1.409       .  A
C536        H541   1.084       .  S
C537        C538   1.425       .  A
C537       C1093   1.467       .  S
C538        C539   1.422       .  A
C538        H542   1.083       .  S
C539        C540   1.401       .  A
C539        C562   1.498       .  S
C540        H543   1.085   1_655  S
C544        C545   1.398       .  A
C544        C549   1.387       .  A
C544       C1091   1.431       .  S
C545        C546   1.404   1_655  A
C545        H550   1.084       .  S
C546        C547   1.413       .  A
C546       C1140   1.446       .  S
C547        C548   1.410   1_455  A
C547        H551   1.084       .  S
C548        C549   1.398       .  A
C548        C642   1.480       .  S
C549        H552   1.085       .  S
N553        N554   1.330       .  A
N553        N559   1.315       .  A
N553       Mn582   2.248       .  S
N554        C561   1.363       .  A
N555        N557   1.313       .  A
N555        N556   1.317       .  A
N555       Mn571   2.205   1_655  S
N556        C562   1.356       .  A
N557        N558   1.331       .  A
N557       Mn582   2.223       .  S
N558        C562   1.358       .  A
N559        N560   1.331   1_655  A
N559       Mn571   2.249   1_655  S
N560        C561   1.362   1_455  A
N563        N569   1.318       .  A
N563        N564   1.314       .  A
N563       Mn593   2.195       .  S
N564        C572   1.351       .  A
N565        N566   1.316       .  A
N565        N567   1.318       .  A
N565       Mn571   2.180   1_545  S
N566        C573   1.348       .  A
N567        N568   1.318       .  A
N567       Mn593   2.195       .  S
N568        C573   1.349       .  A
N569        N570   1.326       .  A
N569       Mn571   2.217   1_545  S
N570        C572   1.355       .  A
Mn571      Cl595   2.551   1_465  S
N574        N575   1.318       .  A
N574        N580   1.318       .  A
N574       Mn582   2.188   1_545  S
N575        C583   1.348       .  A
N576        N578   1.318       .  A
N576        N577   1.326       .  A
N576       Mn594   2.216       .  S
N577        C584   1.355       .  A
N578        N579   1.314       .  A
N578       Mn582   2.201   1_545  S
N579        C584   1.352       .  A
N580        N581   1.316       .  A
N580       Mn594   2.183       .  S
N581        C583   1.349       .  A
Mn582      Cl595   2.550   1_565  S
N585        N586   1.330       .  A
N585        N591   1.313   1_455  A
N585       Mn593   2.218       .  S
N586        C596   1.358   1_455  A
N587        N588   1.330       .  A
N587        N589   1.315   1_655  A
N587       Mn594   2.244       .  S
N588        C597   1.361       .  A
N589        N590   1.330       .  A
N589       Mn593   2.251       .  S
N590        C597   1.364   1_455  A
N591        N592   1.317       .  A
N591       Mn594   2.207       .  S
N592        C596   1.356       .  A
Mn593      Cl595   2.550   1_455  S
Mn594      Cl595   2.551       .  S
N598        N599   1.327       .  A
N598        N604   1.318       .  A
N598       Mn627   2.225       .  S
N599        C606   1.357       .  A
N600        N602   1.317       .  A
N600        N601   1.316   1_655  A
N600       Mn616   2.184   1_655  S
N601        C607   1.347   1_455  A
N602        N603   1.316       .  A
N602       Mn627   2.180       .  S
N603        C607   1.349       .  A
N604        N605   1.313       .  A
N604       Mn616   2.192   1_655  S
N605        C606   1.350       .  A
N608        N614   1.313   1_556  A
N608        N609   1.316       .  A
N608       Mn638   2.202       .  S
N609        C617   1.355   1_556  A
N610        N611   1.329       .  A
N610        N612   1.314   1_554  A
N610       Mn616   2.240       .  S
N611        C618   1.362   1_554  A
N612        N613   1.330       .  A
N612       Mn638   2.246       .  S
N613        C618   1.362       .  A
N614        N615   1.330       .  A
N614       Mn616   2.221       .  S
N615        C617   1.358       .  A
Mn616      Cl640   2.549   1_454  S
N619        N620   1.330       .  A
N619        N625   1.316   1_554  A
N619       Mn627   2.248       .  S
N620        C628   1.361   1_554  A
N621        N623   1.313   1_556  A
N621        N622   1.330       .  A
N621       Mn639   2.221       .  S
N622        C629   1.359       .  A
N623        N624   1.316       .  A
N623       Mn627   2.201       .  S
N624        C629   1.354   1_554  A
N625        N626   1.331       .  A
N625       Mn639   2.259       .  S
N626        C628   1.365       .  A
Mn627      Cl640   2.553   1_554  S
N630        N631   1.316       .  A
N630        N636   1.318   1_455  A
N630       Mn638   2.179       .  S
N631        C641   1.348   1_455  A
N632        N633   1.314       .  A
N632        N634   1.318   1_655  A
N632       Mn639   2.198       .  S
N633        C642   1.351       .  A
N634        N635   1.326       .  A
N634       Mn638   2.218       .  S
N635        C642   1.355   1_455  A
N636        N637   1.319       .  A
N636       Mn639   2.200       .  S
N637        C641   1.349       .  A
Mn638      Cl640   2.554   1_455  S
Mn639      Cl640   2.550       .  S
N643        N644   1.319       .  A
N643        N649   1.318   1_556  A
N643       Mn672   2.195       .  S
N644        C651   1.349       .  A
N645        N647   1.318   1_554  A
N645        N646   1.327       .  A
N645       Mn661   2.220       .  S
N646        C652   1.356       .  A
N647        N648   1.313       .  A
N647       Mn672   2.196       .  S
N648        C652   1.350   1_556  A
N649        N650   1.315       .  A
N649       Mn661   2.178       .  S
N650        C651   1.347   1_554  A
N653        N659   1.313       .  A
N653        N654   1.330       .  A
N653       Mn683   2.220   1_545  S
N654        C662   1.358       .  A
N655        N656   1.331       .  A
N655        N657   1.314       .  A
N655       Mn661   2.251       .  S
N656        C663   1.362       .  A
N657        N658   1.329       .  A
N657       Mn683   2.241   1_545  S
N658        C663   1.362       .  A
N659        N660   1.317       .  A
N659       Mn661   2.204       .  S
N660        C662   1.356       .  A
Mn661      Cl685   2.553   1_554  S
N664        N665   1.331       .  A
N664        N670   1.316       .  A
N664       Mn672   2.255       .  S
N665        C673   1.364       .  A
N666        N668   1.313       .  A
N666        N667   1.316       .  A
N666       Mn684   2.204       .  S
N667        C674   1.355       .  A
N668        N669   1.330       .  A
N668       Mn672   2.219       .  S
N669        C674   1.358       .  A
N670        N671   1.331       .  A
N670       Mn684   2.251       .  S
N671        C673   1.362       .  A
Mn672      Cl685   2.549       .  S
N675        N676   1.313       .  A
N675        N681   1.318   1_554  A
N675       Mn683   2.192       .  S
N676        C686   1.350   1_554  A
N677        N678   1.315       .  A
N677        N679   1.317   1_556  A
N677       Mn684   2.182   1_565  S
N678        C687   1.349       .  A
N679        N680   1.317       .  A
N679       Mn683   2.182       .  S
N680        C687   1.347   1_554  A
N681        N682   1.328       .  A
N681       Mn684   2.225   1_565  S
N682        C686   1.357       .  A
Mn683      Cl685   2.549   1_564  S
Mn684      Cl685   2.552       .  S
O688        C715   1.263       .  A
O688       Mn714   2.064       .  S
C689       C1102   1.402       .  S
C689        O722   1.263       .  A
C689        O719   1.260       .  A
O690       Mn697   2.174       .  S
O690       Mn708   2.142       .  S
O690       Mn712   2.172       .  S
O690       Mn714   2.150       .  S
O691        C701   1.273       .  A
O691       Mn725   2.101       .  S
O692        C715   1.259       .  A
O692       Mn708   2.043       .  S
O693        C720   1.267       .  A
O693       Mn712   2.186       .  S
O694       Mn725   1.970       .  S
O694       Mn714   1.978       .  S
O694        C710   1.226       .  S
C695       C1084   1.457       .  S
C695        O698   1.267       .  A
C695        O721   1.217       .  S
O696       Mn716   2.135       .  S
O696       Mn697   2.180       .  S
O696       Mn730   2.139       .  S
O696       Mn712   2.178       .  S
Mn697       O726   2.185       .  S
Mn697       O702   2.156       .  S
Mn697       O729   2.178       .  S
Mn697       O703   2.173       .  S
O698       Mn712   2.154       .  S
O699        C701   1.266       .  A
O699       Mn706   2.074       .  S
C700       C1096   1.498       .  S
C700        O726   1.267       .  A
C700        O713   1.221       .  S
C701       C1086   1.428       .  S
O702        C727   1.267       .  A
O703       Mn706   2.144       .  S
O703       Mn725   2.148       .  S
O703       Mn712   2.174       .  S
O704       Mn708   1.949       .  S
O704       Mn730   1.942       .  S
O704        C727   1.218       .  S
C705       C1089   1.404       .  S
C705        O731   1.260       .  A
C705        O707   1.264       .  A
Mn706       O719   2.046       .  S
Mn706       O721   1.952       .  S
Mn706       O713   1.966       .  S
O707       Mn730   2.068       .  S
Mn708       O724   2.066       .  S
Mn708       O718   1.965       .  S
O709        C711   1.273       .  A
O709       Mn714   2.103       .  S
C710       C1079   1.490       .  S
C710        O728   1.270       .  A
C711       C1092   1.426       .  S
C711        O724   1.264       .  A
Mn712       O728   2.172       .  S
O713       Mn716   1.952       .  S
Mn714       O732   1.965       .  S
C715       C1082   1.400       .  S
Mn716       O723   2.071       .  S
Mn716       O731   2.051       .  S
Mn716       O721   1.946       .  S
C717       C1098   1.404       .  S
C717        O723   1.265       .  A
C717        O733   1.259       .  A
O718       Mn730   1.949       .  S
O718        C720   1.220       .  S
C720       C1087   1.497       .  S
O722       Mn725   2.063       .  S
Mn725       O732   1.975       .  S
C727       C1094   1.460       .  S
O729        C734   1.270       .  A
Mn730       O733   2.046       .  S
O732        C734   1.225       .  S
C734       C1100   1.493       .  S
C735        C736   1.413       .  A
C735        C740   1.405       .  A
C735       C1136   1.445       .  S
C736        C737   1.409       .  A
C736        H741   1.084       .  S
C737        C738   1.400       .  A
C737       C1006   1.480       .  S
C738        C739   1.388       .  A
C738        H742   1.085       .  S
C739        C740   1.399       .  A
C739       C1206   1.433       .  S
C740        H743   1.084       .  S
C744        C745   1.389       .  A
C744        C749   1.400       .  A
C744       C1137   1.437       .  S
C745        C746   1.400       .  A
C745        H750   1.085       .  S
C746        C747   1.419       .  A
C746        C940   1.494       .  S
C747        C748   1.422       .  A
C747        H751   1.083       .  S
C748        C749   1.406       .  A
C748       C1204   1.459       .  S
C749        H752   1.085       .  S
C753        C754   1.403       .  A
C753        C758   1.390       .  A
C753       C1179   1.443       .  S
C754        C755   1.409       .  A
C754        H759   1.084       .  S
C755        C756   1.424       .  A
C755       C1162   1.467       .  S
C756        C757   1.421       .  A
C756        H760   1.083       .  S
C757        C758   1.402       .  A
C757        C906   1.496       .  S
C758        H761   1.085       .  S
C762        C763   1.398       .  A
C762        C767   1.387       .  A
C762       C1160   1.431       .  S
C763        C764   1.404       .  A
C763        H768   1.084       .  S
C764        C765   1.414       .  A
C764       C1181   1.447       .  S
C765        C766   1.411       .  A
C765        H769   1.084       .  S
C766        C767   1.399       .  A
C766       C1018   1.481       .  S
C767        H770   1.085       .  S
C771        C772   1.384       .  A
C771        C776   1.393       .  A
C771       C1112   1.407       .  S
C772        C773   1.385       .  A
C772        H777   1.087       .  S
C773        C774   1.398       .  A
C773       C1090   1.411       .  S
C774        C775   1.400       .  A
C774        H778   1.084       .  S
C775        C776   1.398       .  A
C775       C1017   1.463       .  S
C776        H779   1.085       .  S
C780        C781   1.422       .  A
C780        C785   1.428       .  A
C780       C1088   1.502       .  S
C781        C782   1.424       .  A
C781        H786   1.083       .  S
C782        C783   1.420       .  A
C782        C941   1.524       .  S
C783        C784   1.418       .  A
C783        H787   1.084       .  S
C784        C785   1.428       .  A
C784       C1113   1.499       .  S
C785        H788   1.083       .  S
C789        C790   1.387       .  A
C789        C794   1.396       .  A
C789       C1230   1.409       .  S
C790        C791   1.386       .  A
C790        H795   1.086       .  S
C791        C792   1.392       .  A
C791       C1156   1.408       .  S
C792        C793   1.396       .  A
C792        H796   1.085       .  S
C793        C794   1.399       .  A
C793        C951   1.459       .  S
C794        H797   1.084       .  S
C798        C799   1.429       .  A
C798        C803   1.416       .  A
C798       C1158   1.497       .  S
C799        C800   1.429       .  A
C799        H804   1.083       .  S
C800        C801   1.421       .  A
C800       C1228   1.502       .  S
C801        C802   1.424       .  A
C801        H805   1.083       .  S
C802        C803   1.419       .  A
C802        C995   1.522       .  S
C803        H806   1.084       .  S
C807        C808   1.417       .  A
C807        C812   1.427       .  A
C807       C1199   1.496       .  S
C808        C809   1.420       .  A
C808        H813   1.084       .  S
C809        C810   1.422       .  A
C809       C1031   1.520       .  S
C810        C811   1.420       .  A
C810        H814   1.083       .  S
C811        C812   1.427       .  A
C811       C1110   1.499       .  S
C812        H815   1.083       .  S
C816        C817   1.398       .  A
C816        C821   1.387       .  A
C816       C1108   1.411       .  S
C817        C818   1.399       .  A
C817        H822   1.084       .  S
C818        C819   1.397       .  A
C818        C985   1.461       .  S
C819        C820   1.391       .  A
C819        H823   1.085       .  S
C820        C821   1.385       .  A
C820       C1201   1.410       .  S
C821        H824   1.087       .  S
C825        C826   1.414       .  A
C825        C830   1.405       .  A
C825       C1178   1.449       .  S
C826        C827   1.411       .  A
C826        H831   1.084       .  S
C827        C828   1.399       .  A
C827        C927   1.479       .  S
C828        C829   1.388       .  A
C828        H832   1.085       .  S
C829        C830   1.399       .  A
C829       C1104   1.434       .  S
C830        H833   1.084       .  S
C834        C835   1.424       .  A
C834        C839   1.408       .  A
C834       C1106   1.464       .  S
C835        C836   1.421       .  A
C835        H840   1.083       .  S
C836        C837   1.401       .  A
C836        C973   1.496       .  S
C837        C838   1.389       .  A
C837        H841   1.085       .  S
C838        C839   1.402       .  A
C838       C1176   1.442       .  S
C839        H842   1.084       .  S
C843        C844   1.388       .  A
C843        C848   1.397       .  A
C843       C1085   1.432       .  S
C844        C845   1.400       .  A
C844        H849   1.085       .  S
C845        C846   1.411       .  A
C845        C986   1.481       .  S
C846        C847   1.414       .  A
C846        H850   1.084       .  S
C847        C848   1.403       .  A
C847       C1132   1.445       .  S
C848        H851   1.085       .  S
C852        C853   1.402       .  A
C852        C857   1.389       .  A
C852       C1134   1.443       .  S
C853        C854   1.409       .  A
C853        H858   1.084       .  S
C854        C855   1.424       .  A
C854       C1083   1.465       .  S
C855        C856   1.420       .  A
C855        H859   1.083       .  S
C856        C857   1.401       .  A
C856        C996   1.496       .  S
C857        H860   1.085       .  S
C861        C862   1.392       .  A
C861        C866   1.383       .  A
C861       C1081   1.407       .  S
C862        C863   1.396       .  A
C862        H867   1.085       .  S
C863        C864   1.400       .  A
C863        C916   1.459       .  S
C864        C865   1.396       .  A
C864        H868   1.084       .  S
C865        C866   1.386       .  A
C865       C1152   1.408       .  S
C866        H869   1.087       .  S
C870        C871   1.415       .  A
C870        C875   1.427       .  A
C870       C1080   1.494       .  S
C871        C872   1.418       .  A
C871        H876   1.084       .  S
C872        C873   1.424       .  A
C872        C972   1.523       .  S
C873        C874   1.423       .  A
C873        H877   1.083       .  S
C874        C875   1.427       .  A
C874       C1153   1.501       .  S
C875        H878   1.083       .  S
C879        C880   1.424       .  A
C879        C884   1.410       .  A
C879       C1223   1.467       .  S
C880        C881   1.421       .  A
C880        H885   1.083       .  S
C881        C882   1.402       .  A
C881        C961   1.495       .  S
C882        C883   1.390       .  A
C882        H886   1.085       .  S
C883        C884   1.403       .  A
C883       C1129   1.444       .  S
C884        H887   1.084       .  S
C888        C889   1.405       .  A
C888        C893   1.414       .  A
C888       C1128   1.448       .  S
C889        C890   1.399       .  A
C889        H894   1.084       .  S
C890        C891   1.387       .  A
C890       C1226   1.432       .  S
C891        C892   1.399       .  A
C891        H895   1.085       .  S
C892        C893   1.411       .  A
C892        C917   1.480       .  S
C893        H896   1.084       .  S
N897        N898   1.330       .  A
N897        N903   1.314       .  A
N897       Mn926   2.245   1_455  S
N898        C905   1.361       .  A
N899        N901   1.313       .  A
N899        N900   1.330       .  A
N899       Mn915   2.222       .  S
N900        C906   1.358       .  A
N901        N902   1.317       .  A
N901       Mn926   2.201       .  S
N902        C906   1.355       .  A
N903        N904   1.330       .  A
N903       Mn915   2.246   1_455  S
N904        C905   1.363       .  A
N907        N913   1.318       .  A
N907        N908   1.316       .  A
N907       Mn937   2.180       .  S
N908        C916   1.348       .  A
N909        N910   1.313       .  A
N909        N911   1.318       .  A
N909       Mn915   2.196   1_455  S
N910        C917   1.351       .  A
N911        N912   1.327       .  A
N911       Mn937   2.218   1_455  S
N912        C917   1.355       .  A
N913        N914   1.317       .  A
N913       Mn915   2.186       .  S
N914        C916   1.347       .  A
Mn915      Cl939   2.547       .  S
N918        N919   1.326       .  A
N918        N924   1.318       .  A
N918       Mn926   2.213       .  S
N919        C927   1.354       .  A
N920        N922   1.318       .  A
N920        N921   1.319       .  A
N920       Mn938   2.199   1_455  S
N921        C928   1.350       .  A
N922        N923   1.315       .  A
N922       Mn926   2.174   1_455  S
N923        C928   1.347       .  A
N924        N925   1.314       .  A
N924       Mn938   2.196       .  S
N925        C927   1.351       .  A
Mn926      Cl939   2.553       .  S
N929        N930   1.317       .  A
N929        N935   1.313       .  A
N929       Mn937   2.204   1_455  S
N930        C940   1.355       .  A
N931        N932   1.331       .  A
N931        N933   1.315       .  A
N931       Mn938   2.255       .  S
N932        C941   1.364       .  A
N933        N934   1.330       .  A
N933       Mn937   2.247       .  S
N934        C941   1.361       .  A
N935        N936   1.329       .  A
N935       Mn938   2.217   1_455  S
N936        C940   1.357       .  A
Mn937      Cl939   2.553       .  S
Mn938      Cl939   2.546       .  S
N942        N943   1.328       .  A
N942        N948   1.318       .  A
N942       Mn971   2.225   1_554  S
N943        C950   1.357       .  A
N944        N946   1.318       .  A
N944        N945   1.317       .  A
N944       Mn960   2.183   1_556  S
N945        C951   1.348       .  A
N946        N947   1.316       .  A
N946       Mn971   2.182       .  S
N947        C951   1.348       .  A
N948        N949   1.313       .  A
N948       Mn960   2.191       .  S
N949        C950   1.350       .  A
N952        N958   1.313       .  A
N952        N953   1.316       .  A
N952       Mn982   2.200       .  S
N953        C961   1.355       .  A
N954        N955   1.328       .  A
N954        N956   1.314       .  A
N954       Mn960   2.239       .  S
N955        C962   1.361       .  A
N956        N957   1.330       .  A
N956       Mn982   2.246   1_554  S
N957        C962   1.362       .  A
N958        N959   1.330       .  A
N958       Mn960   2.219   1_556  S
N959        C961   1.358       .  A
Mn960      Cl984   2.547   1_554  S
N963        N964   1.331       .  A
N963        N969   1.315       .  A
N963       Mn971   2.249       .  S
N964        C972   1.361       .  A
N965        N967   1.313       .  A
N965        N966   1.330       .  A
N965       Mn983   2.219   1_554  S
N966        C973   1.358       .  A
N967        N968   1.316       .  A
N967       Mn971   2.204   1_554  S
N968        C973   1.355       .  A
N969        N970   1.330       .  A
N969       Mn983   2.252       .  S
N970        C972   1.363       .  A
Mn971      Cl984   2.552       .  S
N974        N975   1.314       .  A
N974        N980   1.318       .  A
N974       Mn982   2.175   1_554  S
N975        C985   1.346       .  A
N976        N977   1.314       .  A
N976        N978   1.318       .  A
N976       Mn983   2.200       .  S
N977        C986   1.351       .  A
N978        N979   1.327       .  A
N978       Mn982   2.217       .  S
N979        C986   1.355       .  A
N980        N981   1.319       .  A
N980       Mn983   2.195   1_554  S
N981        C985   1.349       .  A
Mn982      Cl984   2.553       .  S
Mn983      Cl984   2.547       .  S
N987        N988   1.330       .  A
N987        N993   1.315       .  A
N987      Mn1016   2.253       .  S
N988        C995   1.364       .  A
N989        N991   1.313       .  A
N989        N990   1.316   1_545  A
N989      Mn1005   2.202       .  S
N990        C996   1.355       .  A
N991        N992   1.330   1_545  A
N991      Mn1016   2.221       .  S
N992        C996   1.358       .  A
N993        N994   1.330       .  A
N993      Mn1005   2.247       .  S
N994        C995   1.361       .  A
N997       N1003   1.318       .  A
N997        N998   1.313       .  A
N997      Mn1027   2.194   1_565  S
N998       C1006   1.350       .  A
N999       N1000   1.315       .  A
N999       N1001   1.318       .  A
N999      Mn1005   2.179       .  S
N1000      C1007   1.348       .  A
N1001      N1002   1.316       .  A
N1001     Mn1027   2.185       .  S
N1002      C1007   1.348       .  A
N1003      N1004   1.327       .  A
N1003     Mn1005   2.222   1_565  S
N1004      C1006   1.356       .  A
Mn1005    Cl1029   2.553       .  S
N1008      N1009   1.319   1_545  A
N1008      N1014   1.318       .  A
N1008     Mn1016   2.198       .  S
N1009      C1017   1.349       .  A
N1010      N1012   1.318       .  A
N1010      N1011   1.327       .  A
N1010     Mn1028   2.217       .  S
N1011      C1018   1.355       .  A
N1012      N1013   1.314       .  A
N1012     Mn1016   2.200       .  S
N1013      C1018   1.352       .  A
N1014      N1015   1.316   1_545  A
N1014     Mn1028   2.180       .  S
N1015      C1017   1.348       .  A
Mn1016    Cl1029   2.549       .  S
N1019      N1020   1.330       .  A
N1019      N1025   1.313       .  A
N1019     Mn1027   2.224       .  S
N1020      C1030   1.359       .  A
N1021      N1022   1.329       .  A
N1021      N1023   1.314       .  A
N1021     Mn1028   2.243   1_565  S
N1022      C1031   1.361       .  A
N1023      N1024   1.329       .  A
N1023     Mn1027   2.243   1_565  S
N1024      C1031   1.362       .  A
N1025      N1026   1.317       .  A
N1025     Mn1028   2.202       .  S
N1026      C1030   1.355       .  A
Mn1027    Cl1029   2.549       .  S
Mn1028    Cl1029   2.554       .  S
O1032      C1059   1.260       .  A
O1032     Mn1058   2.042       .  S
C1033      C1220   1.407       .  S
C1033      O1066   1.260       .  A
C1033      O1063   1.265       .  A
O1034     Mn1041   2.173       .  S
O1034     Mn1052   2.150       .  S
O1034     Mn1056   2.168       .  S
O1034     Mn1058   2.142       .  S
O1035      C1045   1.263       .  A
O1035     Mn1069   2.063       .  S
O1036      C1059   1.264       .  A
O1036     Mn1052   2.068       .  S
O1037      C1064   1.270       .  A
O1037     Mn1056   2.172       .  S
O1038     Mn1069   1.952       .  S
O1038     Mn1058   1.970       .  S
O1038      C1054   1.223       .  S
C1039      C1254   1.457       .  S
C1039      O1042   1.265       .  A
C1039      O1065   1.218       .  S
O1040     Mn1060   2.145       .  S
O1040     Mn1041   2.167       .  S
O1040     Mn1074   2.147       .  S
O1040     Mn1056   2.173       .  S
Mn1041     O1070   2.177       .  S
Mn1041     O1046   2.178       .  S
Mn1041     O1073   2.143       .  S
Mn1041     O1047   2.183       .  S
O1042     Mn1056   2.149       .  S
O1043      C1045   1.260       .  A
O1043     Mn1050   2.049       .  S
C1044      C1216   1.493       .  S
C1044      O1070   1.266       .  A
C1044      O1057   1.221       .  S
C1045      C1268   1.402       .  S
O1046      C1071   1.270       .  A
O1047     Mn1050   2.137       .  S
O1047     Mn1069   2.141       .  S
O1047     Mn1056   2.181       .  S
O1048     Mn1052   1.966       .  S
O1048     Mn1074   1.979       .  S
O1048      C1071   1.225       .  S
C1049      C1250   1.431       .  S
C1049      O1075   1.265       .  A
C1049      O1051   1.273       .  A
Mn1050     O1063   2.074       .  S
Mn1050     O1065   1.948       .  S
Mn1050     O1057   1.949       .  S
O1051     Mn1074   2.105       .  S
Mn1052     O1068   2.104       .  S
Mn1052     O1062   1.980       .  S
O1053      C1055   1.264       .  A
O1053     Mn1058   2.067       .  S
C1054      C1264   1.499       .  S
C1054      O1072   1.267       .  A
C1055      C1192   1.429       .  S
C1055      O1068   1.273       .  A
Mn1056     O1072   2.182       .  S
O1057     Mn1060   1.967       .  S
Mn1058     O1076   1.948       .  S
C1059      C1260   1.402       .  S
Mn1060     O1067   2.046       .  S
Mn1060     O1075   2.073       .  S
Mn1060     O1065   1.953       .  S
C1061      C1240   1.405       .  S
C1061      O1067   1.260       .  A
C1061      O1077   1.264       .  A
O1062     Mn1074   1.973       .  S
O1062      C1064   1.226       .  S
C1064      C1255   1.490       .  S
O1066     Mn1069   2.050       .  S
Mn1069     O1076   1.938       .  S
C1071      C1244   1.494       .  S
O1073      C1078   1.264       .  A
Mn1074     O1077   2.070       .  S
O1076      C1078   1.217       .  S
C1078      C1195   1.453       .  S
C1079      C1080   1.239       .  T
C1081      C1082   1.186       .  T
C1083      C1084   1.221       .  T
C1085      C1086   1.202       .  T
C1087      C1088   1.243       .  T
C1089      C1090   1.189       .  T
C1091      C1092   1.201       .  T
C1093      C1094   1.222       .  T
C1095      C1096   1.244       .  T
C1097      C1098   1.189       .  T
C1099      C1100   1.241       .  T
C1101      C1102   1.187       .  T
C1103      C1104   1.203       .  T
C1105      C1106   1.221       .  T
C1107      C1108   1.189       .  T
C1109      C1110   1.241       .  T
C1111      C1112   1.186       .  T
C1113      C1114   1.241       .  T
C1115      C1116   1.188       .  T
C1117      C1118   1.245       .  T
C1119      C1120   1.223       .  T
C1121      C1122   1.201       .  T
C1123      C1124   1.241       .  T
C1125      C1126   1.186       .  T
C1127      C1128   1.211       .  T
C1129      C1130   1.209       .  T
C1131      C1132   1.209       .  T
C1133      C1134   1.208       .  T
C1135      C1136   1.209       .  T
C1137      C1138   1.205       .  T
C1139      C1140   1.210       .  T
C1141      C1142   1.208       .  T
C1143      C1144   1.207       .  T
C1145      C1146   1.211       .  T
C1147      C1148   1.210       .  T
C1149      C1150   1.207       .  T
C1151      C1152   1.188       .  T
C1153      C1154   1.242       .  T
C1155      C1156   1.188       .  T
C1157      C1158   1.240       .  T
C1159      C1160   1.201       .  T
C1161      C1162   1.222       .  T
C1163      C1164   1.187       .  T
C1165      C1166   1.239       .  T
C1167      C1168   1.188       .  T
C1169      C1170   1.243       .  T
C1171      C1172   1.219       .  T
C1173      C1174   1.203       .  T
C1175      C1176   1.208       .  T
C1177      C1178   1.211       .  T
C1179      C1180   1.208       .  T
C1181      C1182   1.210       .  T
C1183      C1184   1.209       .  T
C1185      C1186   1.211       .  T
C1187      C1188   1.207       .  T
C1189      C1190   1.210       .  T
C1191      C1192   1.202       .  T
C1193      C1194   1.210       .  T
C1195      C1196   1.218       .  T
C1197      C1198   1.206       .  T
C1199      C1200   1.240       .  T
C1201      C1202   1.189       .  T
C1203      C1204   1.218       .  T
C1205      C1206   1.202       .  T
C1207      C1208   1.244       .  T
C1209      C1210   1.187       .  T
C1211      C1212   1.220       .  T
C1213      C1214   1.203       .  T
C1215      C1216   1.241       .  T
C1217      C1218   1.239       .  T
C1219      C1220   1.190       .  T
C1221      C1222   1.188       .  T
C1223      C1224   1.222       .  T
C1225      C1226   1.202       .  T
C1227      C1228   1.243       .  T
C1229      C1230   1.188       .  T
C1231      C1232   1.219       .  T
C1233      C1234   1.203       .  T
C1235      C1236   1.241       .  T
C1237      C1238   1.186       .  T
C1239      C1240   1.189       .  T
C1241      C1242   1.189       .  T
C1243      C1244   1.241       .  T
C1245      C1246   1.241       .  T
C1247      C1248   1.210       .  T
C1249      C1250   1.204       .  T
C1251      C1252   1.208       .  T
C1253      C1254   1.220       .  T
C1255      C1256   1.239       .  T
C1257      C1258   1.240       .  T
C1259      C1260   1.188       .  T
C1261      C1262   1.189       .  T
C1263      C1264   1.244       .  T
C1265      C1266   1.241       .  T
C1267      C1268   1.187       .  T
C1269      C1270   1.185       .  T
