geometry optimzed in LAMMPS
_audit_creation_date              2020-12-01 
_audit_creation_method            'lammps2cif' 
_symmetry_space_group_name_H-M    'P1' 
_symmetry_Int_Tables_number       1 
_symmetry_cell_setting            triclinic 
loop_ 
_symmetry_equiv_pos_as_xyz 
  x,y,z 
_cell_length_a                    79.19044432 
_cell_length_b                    79.36004413553164 
_cell_length_c                    47.19986888929643 
_cell_angle_alpha                 89.47019153272298 
_cell_angle_beta                  90.58156666488235 
_cell_angle_gamma                 123.45015285588767 
loop_ 
_atom_site_label 
_atom_site_type_symbol 
_atom_site_fract_x 
_atom_site_fract_y 
_atom_site_fract_z 
_atom_site_charge 
O1          O  0.23292543  0.35030690  0.32834762    -0.55600
C2          C  0.27601963  0.35629991  0.26470185     0.77000
O3          O  0.23276954  0.29753603  0.29760470    -0.56800
C4          C  0.21553785  0.33554344  0.33586994     0.77000
C5          C  0.21478568  0.33279108  0.24417960     0.79400
Cd6        Cd  0.23719542  0.33115001  0.29123026     1.37500
O7          O  0.27177236  0.36245945  0.28660468    -0.55600
O8          O  0.22661254  0.34776289  0.25968023    -0.54400
C9          C  0.24287100  0.30270091  0.32066499     0.79300
O10         O  0.21259299  0.31610367  0.25086116    -0.56800
O11         O  0.26283532  0.33852397  0.25666048    -0.55300
O12         O  0.20834825  0.31918302  0.32242650    -0.55200
O13         O  0.25027322  0.32060922  0.32889942    -0.54400
O14         O  0.11849678  0.33133021  0.00079826    -0.55600
C15         C  0.07824652  0.32192350  0.06980560     0.77000
O16         O  0.13823747  0.36515272  0.08115216    -0.56800
C17         C  0.13661033  0.34555618  0.99519800     0.77000
C18         C  0.10627553  0.37600997  0.01051356     0.79400
Cd19       Cd  0.11498063  0.34947847  0.03976099     1.37500
O20         O  0.08202819  0.31670604  0.04656775    -0.55600
O21         O  0.09879335  0.35783530  0.00362966    -0.54400
C22         C  0.14079291  0.35069670  0.08365657     0.79300
O23         O  0.11805150  0.38241212  0.03195772    -0.56800
O24         O  0.09101514  0.33977748  0.07795025    -0.55300
O25         O  0.14434147  0.36134494  0.01018270    -0.55200
O26         O  0.13202987  0.33670839  0.06555094    -0.54400
O27         O  0.35662188  0.23859938  0.41658589    -0.55600
C28         C  0.36621865  0.28016908  0.48365565     0.77000
O29         O  0.30522173  0.23679520  0.45220675    -0.56800
C30         C  0.34302385  0.22004689  0.41267199     0.77000
C31         C  0.33874613  0.21737118  0.00503574     0.79400
Cd32       Cd  0.33927290  0.24177032  0.45758482     1.37500
O33         O  0.37150539  0.27554295  0.46123882    -0.55600
O34         O  0.35485540  0.22987834  0.48912677    -0.54400
C35         C  0.31057963  0.24838914  0.43070420     0.79300
O36         O  0.32328981  0.21724638  0.49733468    -0.56800
O37         O  0.34867614  0.26732647  0.49288518    -0.55300
O38         O  0.32825768  0.21193535  0.42961920    -0.55200
O39         O  0.32874400  0.25666242  0.42302220    -0.54400
O40         O  0.32891447  0.11864981  0.24896462    -0.55600
C41         C  0.31627165  0.07560569  0.18327047     0.77000
O42         O  0.36305121  0.13539815  0.16955088    -0.56800
C43         C  0.34473268  0.13531853  0.25651831     0.77000
C44         C  0.37125301  0.10166629  0.23851753     0.79400
Cd45       Cd  0.34593164  0.11265848  0.21093152     1.37500
O46         O  0.31153436  0.08082292  0.20563606    -0.55600
O47         O  0.35377927  0.09607614  0.24692185    -0.54400
C48         C  0.34996138  0.13988090  0.16697785     0.79300
O49         O  0.37747060  0.11252495  0.21622453    -0.56800
O50         O  0.33426495  0.08734128  0.17482508    -0.55300
O51         O  0.36083043  0.14097731  0.24312391    -0.55200
O52         O  0.33593238  0.13236089  0.18506948    -0.54400
O53         O  0.60750481  0.58674614  0.37077835    -0.55600
C54         C  0.55509005  0.55682804  0.42704874     0.77000
O55         O  0.57049499  0.61145996  0.38740979    -0.56800
C56         C  0.61193913  0.59896160  0.35024464     0.77000
C57         C  0.54870867  0.55839199  0.33432567     0.79400
Cd58       Cd  0.57445215  0.58278583  0.37972418     1.37500
O59         O  0.57098412  0.55884699  0.41713023    -0.55600
O60         O  0.55913203  0.55396726  0.34917637    -0.54400
C61         C  0.58230887  0.61791011  0.40878595     0.79300
O62         O  0.54908508  0.57397899  0.34159364    -0.56800
O63         O  0.54820531  0.56586769  0.41411879    -0.55300
O64         O  0.59942488  0.60374260  0.34482860    -0.55200
O65         O  0.59043008  0.60843119  0.41541945    -0.54400
O66         O  0.44965906  0.46293692  0.08467541    -0.55600
C67         C  0.40648441  0.42745102  0.15503258     0.77000
O68         O  0.44862769  0.41308301  0.11902107    -0.56800
C69         C  0.46711423  0.46645225  0.07978150     0.77000
C70         C  0.46882704  0.46730239  0.17112743     0.79400
Cd71       Cd  0.44386108  0.44128137  0.12652485     1.37500
O72         O  0.41088432  0.43820099  0.13269107    -0.55600
O73         O  0.45984463  0.47200232  0.15360742    -0.54400
C74         C  0.43309156  0.40358831  0.10309755     0.79300
O75         O  0.46640531  0.45019255  0.16790547    -0.56800
O76         O  0.41927301  0.42354386  0.16309936    -0.55300
O77         O  0.47321073  0.45829558  0.09648084    -0.55200
O78         O  0.42319089  0.41155322  0.09862702    -0.54400
O79         O  0.93264562  0.69591545  0.45814634    -0.55600
C80         C  0.88208041  0.67485826  0.01132098     0.77000
O81         O  0.87373505  0.64928064  0.42357114    -0.56800
C82         C  0.93746790  0.68853479  0.43850094     0.77000
C83         C  0.90389215  0.63720734  0.49646398     0.79400
Cd84       Cd  0.89818812  0.66502895  0.46469663     1.37500
O85         O  0.89698362  0.68721118  0.49981719    -0.55600
O86         O  0.91280294  0.65582226  0.50187167    -0.54400
C87         C  0.87235722  0.66440861  0.42007771     0.79300
O88         O  0.89175785  0.63077045  0.47537453    -0.56800
O89         O  0.87249631  0.65570508  0.50039195    -0.55300
O90         O  0.92408273  0.67061352  0.43130945    -0.55200
O91         O  0.88263006  0.67899423  0.43688988    -0.54400
O92         O  0.78242447  0.66894483  0.17210388    -0.55600
C93         C  0.73978727  0.66576249  0.23522876     0.77000
O94         O  0.80304428  0.70187041  0.25189595    -0.56800
C95         C  0.80087132  0.68275585  0.16747377     0.77000
C96         C  0.77338585  0.71541148  0.17870119     0.79400
Cd97       Cd  0.77896777  0.68778827  0.21059122     1.37500
O98         O  0.74463701  0.65722090  0.21737059    -0.55600
O99         O  0.76543003  0.69708761  0.17211562    -0.54400
C100        C  0.79870872  0.68458937  0.26017335     0.79300
O101        O  0.78453577  0.72153657  0.20085146    -0.56800
O102        O  0.75284483  0.68424768  0.24015689    -0.55300
O103        O  0.80875838  0.69803982  0.18348968    -0.55200
O104        O  0.78570903  0.66967133  0.24541818    -0.54400
O105        O  0.68638018  0.90836096  0.24699991    -0.55600
C106        C  0.68880656  0.94463900  0.31832854     0.77000
O107        O  0.63193598  0.90139787  0.27747800    -0.56800
C108        C  0.67415891  0.88964188  0.24195316     0.77000
C109        C  0.66848403  0.88408541  0.33080290     0.79400
Cd110      Cd  0.66625204  0.90788120  0.28705828     1.37500
O111        O  0.69642372  0.94167252  0.29688376    -0.55600
O112        O  0.68359704  0.89754933  0.31683605    -0.54400
C113        C  0.63853601  0.91445328  0.25758325     0.79300
O114        O  0.65139563  0.88115766  0.32425609    -0.56800
O115        O  0.67077247  0.93073619  0.32445025    -0.55300
O116        O  0.65867714  0.88003165  0.25755036    -0.55200
O117        O  0.65724149  0.92371751  0.25238337    -0.54400
O118        O  0.65341114  0.75428944  0.03747491    -0.55600
C119        C  0.68452359  0.81007910  0.08605005     0.77000
O120        O  0.71999601  0.79081191  0.04683724    -0.56800
C121        C  0.65856689  0.74887641  0.01572601     0.77000
C122        C  0.68876596  0.81247821  0.99528994     0.79400
Cd123      Cd  0.68679739  0.78745738  0.04116221     1.37500
O124        O  0.66891245  0.79343095  0.07800267    -0.55600
O125        O  0.67433205  0.80389952  0.01273326    -0.54400
C126        C  0.71421045  0.77950044  0.06868308     0.79300
O127        O  0.70312495  0.80993609  0.99932363    -0.56800
O128        O  0.70089644  0.81575879  0.07346756    -0.55300
O129        O  0.67644135  0.76104847  0.00712582    -0.55200
O130        O  0.69618829  0.77206481  0.07655505    -0.54400
O131        O  0.99846234  0.45164674  0.41807798    -0.55600
C132        C  0.98973245  0.40961263  0.34852779     0.77000
O133        O  0.03255054  0.47238521  0.33758753    -0.56800
C134        C  0.01211831  0.47024936  0.42168747     0.77000
C135        C  0.04349387  0.44012032  0.40471020     0.79400
Cd136      Cd  0.01567328  0.44771187  0.37703831     1.37500
O137        O  0.98309058  0.41420876  0.36953450    -0.55600
O138        O  0.02507891  0.43156265  0.41136750    -0.54400
C139        C  0.01626043  0.47045574  0.32909536     0.79300
O140        O  0.04956192  0.45270354  0.38430398    -0.56800
O141        O  0.00808373  0.42216084  0.34212360    -0.55300
O142        O  0.02673144  0.47802365  0.40449241    -0.55200
O143        O  0.00047026  0.45865459  0.34328692    -0.54400
O144        O  0.01995311  0.56695739  0.08270500    -0.55600
C145        C  0.02673302  0.60662973  0.15089077     0.77000
O146        O  0.96810822  0.56730129  0.11473321    -0.56800
C147        C  0.00530512  0.54946088  0.07538800     0.77000
C148        C  0.00240959  0.54535050  0.16512201     0.79400
Cd149      Cd  0.00106082  0.56992955  0.12090875     1.37500
O150        O  0.03310080  0.60317682  0.12846750    -0.55600
O151        O  0.01722958  0.55693442  0.14924251    -0.54400
C152        C  0.97402640  0.57890463  0.09313112     0.79300
O153        O  0.98608723  0.54448379  0.16015567    -0.56800
O154        O  0.00861688  0.59360278  0.15781614    -0.55300
O155        O  0.98896918  0.54189474  0.08911245    -0.55200
O156        O  0.99196390  0.58599083  0.08511704    -0.54400
O157        O  0.91487517  0.27324403  0.21902845    -0.55600
C158        C  0.88861984  0.21599754  0.16894625     0.77000
O159        O  0.94630157  0.24188436  0.20587502    -0.56800
C160        C  0.92618363  0.27924314  0.24097447     0.77000
C161        C  0.89078586  0.21722412  0.26051815     0.79400
Cd162      Cd  0.91482953  0.24177652  0.21382871     1.37500
O163        O  0.89099899  0.23300755  0.17319925    -0.55600
O164        O  0.88604551  0.22698253  0.24468130    -0.54400
C165        C  0.95176554  0.25387645  0.18477357     0.79300
O166        O  0.90693553  0.21819523  0.25438777    -0.56800
O167        O  0.89777391  0.21120312  0.18594998    -0.55300
O168        O  0.93237757  0.26827519  0.24911561    -0.55200
O169        O  0.94061428  0.26026266  0.17884178    -0.54400
O170        O  0.77834851  0.13384502  0.42451402    -0.55600
C171        C  0.73399822  0.09775020  0.49667858     0.77000
O172        O  0.76662439  0.07700156  0.45297138    -0.56800
C173        C  0.79524463  0.13583945  0.42022186     0.77000
C174        C  0.80134644  0.12664042  0.00832773     0.79400
Cd175      Cd  0.76905728  0.10862790  0.46350361     1.37500
O176        O  0.73941174  0.11042393  0.47643187    -0.55600
O177        O  0.79070623  0.13711513  0.49344634    -0.54400
C178        C  0.75487875  0.07261523  0.43181449     0.79300
O179        O  0.79160370  0.11064790  0.50129122    -0.56800
O180        O  0.74466334  0.09056673  0.50058609    -0.55300
O181        O  0.79938509  0.12564011  0.43608466    -0.55200
O182        O  0.74972693  0.08479627  0.42601832    -0.54400
O183        O  0.41168261  0.98098117  0.38980057    -0.55600
C184        C  0.46404545  0.01173013  0.33505350     0.77000
O185        O  0.44511362  0.04684473  0.37049967    -0.56800
C186        C  0.40742836  0.98651792  0.41232837     0.77000
C187        C  0.46929742  0.01998041  0.42648053     0.79400
Cd188      Cd  0.44283680  0.01481338  0.38114460     1.37500
O189        O  0.44756562  0.99623130  0.34378664    -0.55600
O190        O  0.46290948  0.00617438  0.40818409    -0.54400
C191        C  0.43138300  0.03884624  0.35151449     0.79300
O192        O  0.46451463  0.03275395  0.42293567    -0.56800
O193        O  0.47049635  0.02811540  0.34806451    -0.55300
O194        O  0.41907909  0.00487397  0.41917061    -0.55200
O195        O  0.42278269  0.02005605  0.34780423    -0.54400
O196        O  0.60266497  0.03643375  0.12571935    -0.55600
C197        C  0.54582965  0.00878060  0.17502224     0.77000
O198        O  0.54240526  0.99090789  0.09164119    -0.56800
C199        C  0.60701800  0.02929714  0.10507219     0.77000
C200        C  0.57393676  0.97656138  0.15713060     0.79400
Cd201      Cd  0.56793050  0.00536020  0.13058525     1.37500
O202        O  0.56425812  0.02280453  0.17071511    -0.55600
O203        O  0.58002837  0.99363326  0.16762277    -0.54400
C204        C  0.54583447  0.00802861  0.08443058     0.79300
O205        O  0.56425252  0.97219734  0.13377374    -0.56800
O206        O  0.53812912  0.99371995  0.15861370    -0.55300
O207        O  0.59347217  0.01152779  0.09750761    -0.55200
O208        O  0.55910124  0.02308209  0.09870641    -0.54400
O209        O  0.12812890  0.77663343  0.33848587    -0.55600
C210        C  0.09121945  0.73120508  0.26957131     0.77000
O211        O  0.07168511  0.76548912  0.30787199    -0.56800
C212        C  0.13026463  0.79358867  0.34237099     0.77000
C213        C  0.12651685  0.79305370  0.25441840     0.79400
Cd214      Cd  0.10330377  0.76726694  0.29977324     1.37500
O215        O  0.10324951  0.73641561  0.29065998    -0.55600
O216        O  0.13163511  0.78299311  0.26881246    -0.54400
C217        C  0.06761279  0.75522425  0.33059958     0.79300
O218        O  0.11025493  0.79155475  0.26147289    -0.56800
O219        O  0.08461891  0.74222474  0.26402790    -0.55300
O220        O  0.12021421  0.79780797  0.32624234    -0.55200
O221        O  0.07977220  0.75031904  0.33801767    -0.54400
O222        O  0.27327670  0.90996203  0.04512552    -0.55600
C223        C  0.21730193  0.88052496  0.09549732     0.77000
O224        O  0.23875006  0.93770398  0.06253243    -0.56800
C225        C  0.27813921  0.92105679  0.02312046     0.77000
C226        C  0.21663556  0.88665198  0.00530334     0.79400
Cd227      Cd  0.24160457  0.90870068  0.05234162     1.37500
O228        O  0.23520784  0.88497378  0.09174288    -0.55600
O229        O  0.22712973  0.88157576  0.01866586    -0.54400
C230        C  0.25225124  0.94473237  0.08181667     0.79300
O231        O  0.21736198  0.90215584  0.01405944    -0.56800
O232        O  0.21123654  0.88874452  0.07893816    -0.55300
O233        O  0.26647263  0.92660778  0.01587578    -0.55200
O234        O  0.26074937  0.93534227  0.08629336    -0.54400
C235        C  0.16432445  0.81309421  0.19486791     0.14900
C236        C  0.16484326  0.83035517  0.18638409     0.01800
C237        C  0.15213016  0.83504087  0.19979842     0.16800
C238        C  0.13923267  0.82269961  0.22157686     0.26200
C239        C  0.13912876  0.80569550  0.23051938    -0.40100
C240        C  0.15171796  0.80096434  0.21681406     0.33300
C241        C  0.17838263  0.84313821  0.16315293     0.01900
F242        F  0.15252488  0.85180205  0.19221388    -0.12400
F243        F  0.15156273  0.78430588  0.22424880    -0.13000
C244        C  0.17037392  0.84688550  0.13911031     0.16800
C245        C  0.18300869  0.85868513  0.11694883     0.26200
C246        C  0.20396219  0.86685454  0.11824368    -0.40100
C247        C  0.21193566  0.86279492  0.14214291     0.33200
C248        C  0.19925858  0.85115531  0.16450932     0.14900
F249        F  0.15019710  0.83882695  0.13685110    -0.12400
F250        F  0.23205634  0.87059254  0.14433733    -0.12900
F251        F  0.17460884  0.86196738  0.09410155    -0.15200
F252        F  0.20744094  0.84808759  0.18781973    -0.13800
F253        F  0.17577690  0.80773383  0.18148459    -0.13800
F254        F  0.12733769  0.82772308  0.23441924    -0.15200
C255        C  0.19972385  0.85347977  0.43524721     0.14900
C256        C  0.18030315  0.84942632  0.43059840     0.01800
C257        C  0.17339607  0.85890097  0.44755095     0.16800
C258        C  0.18561170  0.87186420  0.46939626     0.26200
C259        C  0.20479030  0.87531409  0.47468740    -0.40100
C260        C  0.21180362  0.86618028  0.45718491     0.33300
C261        C  0.16728655  0.83506486  0.40826231     0.01900
F262        F  0.15455953  0.85502467  0.44358977    -0.12400
F263        F  0.23044802  0.86958791  0.46122826    -0.13000
C264        C  0.16239553  0.81513596  0.40881577     0.16800
C265        C  0.15067962  0.80167643  0.38717533     0.26200
C266        C  0.14348858  0.80789984  0.36472782    -0.40100
C267        C  0.14837986  0.82791676  0.36437741     0.33200
C268        C  0.16019254  0.84134369  0.38591887     0.14900
F269        F  0.16870449  0.80861999  0.43065576    -0.12400
F270        F  0.14193025  0.83467419  0.34303539    -0.12900
F271        F  0.14601821  0.78246925  0.38860880    -0.15200
F272        F  0.16503959  0.86063148  0.38466641    -0.13800
F273        F  0.20701516  0.84512608  0.41842546    -0.13800
F274        F  0.17831240  0.88024879  0.48612953    -0.15200
C275        C  0.32233345  0.94837712  0.46925209     0.14900
C276        C  0.33530392  0.94253266  0.47822668     0.01800
C277        C  0.33037850  0.93026983  0.50243493     0.16800
C278        C  0.31243739  0.92366504  0.51720279     0.26200
C279        C  0.29645201  0.92746546  0.00638370    -0.40100
C280        C  0.29699812  0.93219731  0.97743045     0.33300
C281        C  0.35442059  0.95047616  0.46278417     0.01900
F282        F  0.34287940  0.92464192  0.51163728    -0.12400
F283        F  0.28029068  0.92921908  0.96407086    -0.13000
C284        C  0.37288438  0.96490507  0.47563920     0.16800
C285        C  0.39037596  0.97601829  0.45932710     0.26200
C286        C  0.38970696  0.97266029  0.42995164    -0.40100
C287        C  0.37154965  0.95713829  0.41752867     0.33200
C288        C  0.35398271  0.94622234  0.43381778     0.14900
F289        F  0.37367288  0.96926328  0.50356819    -0.12400
F290        F  0.37042637  0.95358715  0.38927242    -0.12900
F291        F  0.40784774  0.99055251  0.47211017    -0.15200
F292        F  0.33625460  0.93226098  0.42102565    -0.13800
F293        F  0.32714787  0.96080853  0.44650552    -0.13800
F294        F  0.30808440  0.91186532  0.54055009    -0.15200
C295        C  0.53234643  0.03326158  0.02827536     0.14900
C296        C  0.51450805  0.01681149  0.01683462     0.01800
C297        C  0.50701880  0.99726404  0.02712872     0.16800
C298        C  0.51719515  0.99421769  0.04896245     0.26200
C299        C  0.53509456  0.01074839  0.06071656    -0.40100
C300        C  0.54261430  0.03030482  0.04990973     0.33300
C301        C  0.49938511  0.01528041  0.49899517     0.01900
F302        F  0.48976385  0.98116597  0.01609335    -0.12400
F303        F  0.56014875  0.04664136  0.05987917    -0.13000
C304        C  0.50307057  0.01101439  0.47185027     0.16800
C305        C  0.49388382  0.01335912  0.44814593     0.26200
C306        C  0.48102050  0.02026572  0.45113111    -0.40100
C307        C  0.47769820  0.02503293  0.47828147     0.33200
C308        C  0.48678420  0.02247678  0.50210898     0.14900
F309        F  0.51570336  0.00465765  0.46833366    -0.12400
F310        F  0.46480607  0.03106209  0.48190443    -0.12900
F311        F  0.49753570  0.00882140  0.42219435    -0.15200
F312        F  0.49072823  0.03318044  0.02467160    -0.13800
F313        F  0.52864073  0.04831065  0.53197211    -0.13800
F314        F  0.50937216  0.97517548  0.05877668    -0.15200
C315        C  0.50095089  0.99666101  0.21989434     0.14900
C316        C  0.51039625  0.01028380  0.24238497     0.01800
C317        C  0.53157749  0.02366855  0.24250810     0.16800
C318        C  0.54314299  0.02339515  0.22051245     0.26200
C319        C  0.53372114  0.00963500  0.19803252    -0.40100
C320        C  0.51245873  0.99624255  0.19802213     0.33300
C321        C  0.49815701  0.01045874  0.26576096     0.01900
F322        F  0.54111754  0.03668976  0.26433929    -0.12400
F323        F  0.50267048  0.98279319  0.17670808    -0.13000
C324        C  0.48537562  0.99285796  0.28170161     0.16800
C325        C  0.47397899  0.99310030  0.30397531     0.26200
C326        C  0.47535774  0.01102550  0.31086993    -0.40100
C327        C  0.48805258  0.02858385  0.29471757     0.33200
C328        C  0.49924397  0.02825686  0.27229652     0.14900
F329        F  0.48434865  0.97555491  0.27616068    -0.12400
F330        F  0.48937944  0.04603924  0.30027402    -0.12900
F331        F  0.46215554  0.97598928  0.31937878    -0.15200
F332        F  0.51094082  0.04528409  0.25665548    -0.13800
F333        F  0.48048195  0.98391009  0.21888993    -0.13800
F334        F  0.56358767  0.03623752  0.22168148    -0.15200
C335        C  0.69741142  0.06716487  0.05271024     0.14900
C336        C  0.68329777  0.07188732  0.04546330     0.01800
C337        C  0.68685532  0.08429789  0.02185697     0.16800
C338        C  0.70345719  0.09829786  0.51020048     0.26200
C339        C  0.71851650  0.08693458  0.01248944    -0.40100
C340        C  0.71479120  0.07452593  0.03643836     0.33300
C341        C  0.66379730  0.06180481  0.06055188     0.01900
F342        F  0.67393211  0.09786016  0.52141087    -0.12400
F343        F  0.72781896  0.06919473  0.04407169    -0.13000
C344        C  0.66154149  0.06984149  0.08554054     0.16800
C345        C  0.64306646  0.05948021  0.10011361     0.26200
C346        C  0.62668594  0.04079529  0.08998782    -0.40100
C347        C  0.62921588  0.03289760  0.06486998     0.33200
C348        C  0.64753910  0.04333094  0.05038194     0.14900
F349        F  0.67727247  0.08760126  0.09590389    -0.12400
F350        F  0.61395380  0.01501162  0.05408923    -0.12900
F351        F  0.64135181  0.06759265  0.12424619    -0.15200
F352        F  0.64953478  0.03522876  0.02644342    -0.13800
F353        F  0.69399607  0.05482142  0.07511010    -0.13800
F354        F  0.70738202  0.11160535  0.48896787    -0.15200
C355        C  0.85430383  0.19455166  0.10393932     0.14900
C356        C  0.85343564  0.17657674  0.09947126     0.01800
C357        C  0.86402435  0.17159766  0.11799782     0.16800
C358        C  0.87515874  0.18423304  0.14068802     0.26200
C359        C  0.87617129  0.20235592  0.14523584    -0.40100
C360        C  0.86560266  0.20735082  0.12648831     0.33300
C361        C  0.84131941  0.16299180  0.07565343     0.01900
F362        F  0.86393702  0.15464319  0.11378096    -0.12400
F363        F  0.86610638  0.22458552  0.12991270    -0.13000
C364        C  0.84471798  0.17051447  0.04776839     0.16800
C365        C  0.83210834  0.15832331  0.02568970     0.26200
C366        C  0.81612279  0.13828179  0.03097367    -0.40100
C367        C  0.81337214  0.13033302  0.05848054     0.33200
C368        C  0.82579372  0.14264689  0.08073252     0.14900
F369        F  0.86016631  0.18975898  0.04195456    -0.12400
F370        F  0.79786259  0.11108555  0.06412954    -0.12900
F371        F  0.82839207  0.17053113  0.50379343    -0.15200
F372        F  0.82199841  0.13499041  0.10745899    -0.13800
F373        F  0.84390253  0.19957367  0.08666816    -0.13800
F374        F  0.88511042  0.17869713  0.15799816    -0.15200
C375        C  0.85414762  0.20137313  0.32127923     0.14900
C376        C  0.85107434  0.18285133  0.32960518     0.01800
C377        C  0.86196405  0.17603430  0.31586207     0.16800
C378        C  0.87544314  0.18745064  0.29392621     0.26200
C379        C  0.87790123  0.20562594  0.28499496    -0.40100
C380        C  0.86721008  0.21250951  0.29904761     0.33300
C381        C  0.83669187  0.17092651  0.35282882     0.01900
F382        F  0.85913819  0.15806008  0.32314912    -0.12400
F383        F  0.86967330  0.23030131  0.29158247    -0.13000
C384        C  0.81653255  0.16562886  0.35166017     0.16800
C385        C  0.80315531  0.15488474  0.37396292     0.26200
C386        C  0.80958920  0.14890984  0.39764828    -0.40100
C387        C  0.82985160  0.15442014  0.39882107     0.33200
C388        C  0.84321099  0.16531581  0.37672203     0.14900
F389        F  0.80963777  0.17041488  0.32852545    -0.12400
F390        F  0.83689867  0.14940134  0.42153474    -0.12900
F391        F  0.78377106  0.14979210  0.37189236    -0.15200
F392        F  0.86268227  0.17067049  0.37892593    -0.13800
F393        F  0.84471755  0.20889054  0.33504702    -0.13800
F394        F  0.88545836  0.18035113  0.28073398    -0.15200
C395        C  0.06811295  0.65949216  0.17449303     0.14900
C396        C  0.06180720  0.65972332  0.20215175     0.01800
C397        C  0.04482551  0.64215961  0.21331541     0.16800
C398        C  0.03375620  0.62486099  0.19676178     0.26200
C399        C  0.03950649  0.62472985  0.16862307    -0.40100
C400        C  0.05712079  0.64207094  0.15786708     0.33300
C401        C  0.07135119  0.67872141  0.21836954     0.01900
F402        F  0.03835407  0.64205775  0.23988899    -0.12400
F403        F  0.06326993  0.64246316  0.13098317    -0.13000
C404        C  0.06960759  0.69437615  0.20834169     0.16800
C405        C  0.07631348  0.71146683  0.22485138     0.26200
C406        C  0.08504512  0.71333177  0.25182262    -0.40100
C407        C  0.08731087  0.69783787  0.26150421     0.33200
C408        C  0.08033692  0.68058033  0.24498341     0.14900
F409        F  0.06051048  0.69267741  0.18300602    -0.12400
F410        F  0.09559483  0.69902062  0.28732040    -0.12900
F411        F  0.07402453  0.72609808  0.21439014    -0.15200
F412        F  0.08198687  0.66548632  0.25516105    -0.13800
F413        F  0.08467127  0.67629303  0.16343213    -0.13800
F414        F  0.01721093  0.60829222  0.20831083    -0.15200
C415        C  0.93688745  0.33117948  0.25898846     0.14900
C416        C  0.94571233  0.33445944  0.28611661     0.01800
C417        C  0.94706925  0.31914515  0.29868860     0.16800
C418        C  0.94034389  0.30117304  0.28424027     0.26200
C419        C  0.93206095  0.29799610  0.25667347    -0.40100
C420        C  0.92998526  0.31306208  0.24447045     0.33300
C421        C  0.95501586  0.35426247  0.30070249     0.01900
F422        F  0.95571933  0.32193174  0.32468301    -0.12400
F423        F  0.92179321  0.31054402  0.21820939    -0.13000
C424        C  0.94887583  0.35547566  0.32809656     0.16800
C425        C  0.95969612  0.37357687  0.34347175     0.26200
C426        C  0.97703335  0.39075523  0.33184216    -0.40100
C427        C  0.98261127  0.38968120  0.30393804     0.33200
C428        C  0.97164310  0.37170423  0.28851988     0.14900
F429        F  0.93259665  0.33896152  0.34017166    -0.12400
F430        F  0.99888875  0.40602270  0.29153458    -0.12900
F431        F  0.95370671  0.37400015  0.37015340    -0.15200
F432        F  0.97789399  0.37109859  0.26208589    -0.13800
F433        F  0.93510008  0.34560083  0.24647039    -0.13800
F434        F  0.94208963  0.28690516  0.29737533    -0.15200
C435        C  0.99982932  0.48500803  0.49128195     0.14900
C436        C  0.01056810  0.50615694  0.48860939     0.01800
C437        C  0.02195426  0.51539383  0.46405531     0.16800
C438        C  0.02243392  0.50372562  0.44240004     0.26200
C439        C  0.01137212  0.48248262  0.44472756    -0.40100
C440        C  0.00016244  0.47326971  0.46953107     0.33300
C441        C  0.00987349  0.51502348  0.00992913     0.01900
F442        F  0.03219304  0.53573733  0.46069103    -0.12400
F443        F  0.98991875  0.45294522  0.47308232    -0.13000
C444        C  0.02738318  0.53038331  0.02389380     0.16800
C445        C  0.02600598  0.54195365  0.04475583     0.26200
C446        C  0.00704721  0.53815146  0.05223089    -0.40100
C447        C  0.98956533  0.52289425  0.03798010     0.33200
C448        C  0.99100987  0.51156912  0.01686559     0.14900
F449        F  0.04577041  0.53385489  0.01779725    -0.12400
F450        F  0.97105628  0.51910359  0.04414444    -0.12900
F451        F  0.04314051  0.55639166  0.05827824    -0.15200
F452        F  0.97348330  0.50113147  0.50342333    -0.13800
F453        F  0.98849501  0.47220734  0.01366324    -0.13800
F454        F  0.03339743  0.51326460  0.41883311    -0.15200
C455        C  0.02329449  0.52107666  0.21107867     0.14900
C456        C  0.00991308  0.51369197  0.23412581     0.01800
C457        C  0.99396814  0.51671850  0.23422514     0.16800
C458        C  0.99117340  0.52647186  0.21153742     0.26200
C459        C  0.00456012  0.53390811  0.18848619    -0.40100
C460        C  0.02076992  0.53120713  0.18865469     0.33300
C461        C  0.01212621  0.50237011  0.25768702     0.01900
F462        F  0.98128634  0.51060162  0.25669205    -0.12400
F463        F  0.03411580  0.53812229  0.16690316    -0.13000
C464        C  0.03066252  0.51041249  0.27226413     0.16800
C465        C  0.03228079  0.49980755  0.29495011     0.26200
C466        C  0.01529863  0.48120239  0.30389802    -0.40100
C467        C  0.99691844  0.47301263  0.28893988     0.33200
C468        C  0.99543407  0.48335229  0.26595406     0.14900
F469        F  0.04705246  0.52884876  0.26520871    -0.12400
F470        F  0.98033923  0.45476326  0.29627897    -0.12900
F471        F  0.05025423  0.50810923  0.30881330    -0.15200
F472        F  0.97762874  0.47461044  0.25152241    -0.13800
F473        F  0.03860822  0.51811498  0.20991042    -0.13800
F474        F  0.97568115  0.52915111  0.21260680    -0.15200
C475        C  0.58933723  0.95395555  0.21442380     0.14900
C476        C  0.59323050  0.94154520  0.19867473     0.01800
C477        C  0.58906887  0.93934182  0.16939622     0.16800
C478        C  0.58180935  0.94995936  0.15590730     0.26200
C479        C  0.57866544  0.96299832  0.17152026    -0.40100
C480        C  0.58210690  0.96455439  0.20100878     0.33300
C481        C  0.60358729  0.93269560  0.21230459     0.01900
F482        F  0.59269181  0.92740561  0.15372634    -0.12400
F483        F  0.57898252  0.97679660  0.21683043    -0.13000
C484        C  0.59523499  0.91982511  0.23598557     0.16800
C485        C  0.60615704  0.91317005  0.25032437     0.26200
C486        C  0.62565444  0.91935629  0.24117681    -0.40100
C487        C  0.63352349  0.93157774  0.21667578     0.33200
C488        C  0.62271700  0.93832073  0.20266176     0.14900
F489        F  0.57662622  0.91398336  0.24546839    -0.12400
F490        F  0.65195913  0.93743641  0.20639472    -0.12900
F491        F  0.59791816  0.90127051  0.27361374    -0.15200
F492        F  0.63142586  0.95119712  0.18036412    -0.13800
F493        F  0.59366921  0.95676185  0.24257193    -0.13800
F494        F  0.57911055  0.94846521  0.12736955    -0.15200
C495        C  0.67124317  0.84788778  0.19989014     0.14900
C496        C  0.68159801  0.85800967  0.17505537     0.01800
C497        C  0.69043655  0.87894901  0.17271266     0.16800
C498        C  0.68846511  0.88948790  0.19470928     0.26200
C499        C  0.67751286  0.87916222  0.21921722    -0.40100
C500        C  0.66906887  0.85828847  0.22163758     0.33300
C501        C  0.68251652  0.84637760  0.15150703     0.01900
F502        F  0.70036189  0.88903570  0.14876708    -0.12400
F503        F  0.65878807  0.84788345  0.24522470    -0.18400
C504        C  0.66452591  0.83014440  0.13968216     0.16800
C505        C  0.66513678  0.81830687  0.11852212     0.26200
C506        C  0.68380995  0.82247482  0.10872943    -0.40100
C507        C  0.70186039  0.83889227  0.12052766     0.33200
C508        C  0.70118455  0.85074519  0.14166146     0.14900
F509        F  0.64628367  0.82580990  0.14860219    -0.12400
F510        F  0.72022368  0.84330125  0.11208963    -0.12900
F511        F  0.64740087  0.80290224  0.10748101    -0.15200
F512        F  0.71876811  0.86612233  0.15312490    -0.13800
F513        F  0.66324596  0.82782797  0.20310769    -0.13800
F514        F  0.69650535  0.90955438  0.19151693    -0.15200
C515        C  0.67212211  0.84169971  0.44909569     0.14900
C516        C  0.68014733  0.84233387  0.42245454     0.01800
C517        C  0.69159171  0.83382393  0.41926300     0.16800
C518        C  0.69467035  0.82451735  0.44229511     0.26200
C519        C  0.68625939  0.82349931  0.46889971    -0.40100
C520        C  0.67507456  0.83234753  0.47204436     0.33300
C521        C  0.67697116  0.85235949  0.39827915     0.01900
F522        F  0.69933461  0.83406494  0.39361234    -0.12400
F523        F  0.66524719  0.82968090  0.99624763    -0.13000
C524        C  0.69365682  0.86898524  0.38491892     0.16800
C525        C  0.69084046  0.87904453  0.36284955     0.26200
C526        C  0.67116294  0.87278159  0.35372322    -0.40100
C527        C  0.65442584  0.85592202  0.36695163     0.33200
C528        C  0.65732540  0.84582210  0.38904387     0.14900
F529        F  0.71276577  0.87591161  0.39386446    -0.12400
F530        F  0.63526075  0.84909339  0.35845737    -0.12900
F531        F  0.70751905  0.89521190  0.35086342    -0.15200
F532        F  0.64093267  0.82954287  0.40133621    -0.13800
F533        F  0.66160708  0.85040618  0.45299677    -0.13800
F534        F  0.70519680  0.81584759  0.43823446    -0.15200
C535        C  0.70289010  0.98232927  0.37750380     0.14900
C536        C  0.72098592  0.99923308  0.36739440     0.01800
C537        C  0.72890591  0.99804620  0.34159567     0.16800
C538        C  0.71873389  0.98017855  0.32587896     0.26200
C539        C  0.70021023  0.96331369  0.33549296    -0.40100
C540        C  0.69251917  0.96455200  0.36169689     0.33300
C541        C  0.73093046  0.01840687  0.38312678     0.01900
F542        F  0.74646198  0.01427338  0.33157896    -0.12400
F543        F  0.67491745  0.94860963  0.37212860    -0.13000
C544        C  0.73998349  0.02025038  0.40962427     0.16800
C545        C  0.74825334  0.03805534  0.42524813     0.26200
C546        C  0.74732110  0.05419601  0.41471395    -0.40100
C547        C  0.73852436  0.05234948  0.38782189     0.33200
C548        C  0.73044455  0.03461718  0.37220685     0.14900
F549        F  0.74062608  0.00470203  0.42044574    -0.12400
F550        F  0.73763830  0.06765768  0.37656537    -0.12900
F551        F  0.75660709  0.03922245  0.45100922    -0.15200
F552        F  0.72154074  0.03300026  0.34673717    -0.13800
F553        F  0.69495746  0.98326492  0.40236352    -0.13800
F554        F  0.72685979  0.97957279  0.30103042    -0.15200
C555        C  0.75340982  0.76737355  0.08625566     0.14900
C556        C  0.74840728  0.76070819  0.11455480     0.01800
C557        C  0.73344515  0.76202327  0.12802889     0.16800
C558        C  0.72318850  0.76913898  0.11335771     0.26200
C559        C  0.72734385  0.77478383  0.08463406    -0.40100
C560        C  0.74297881  0.77440249  0.07139698     0.33300
C561        C  0.75737101  0.75082638  0.12953933     0.01900
F562        F  0.72793920  0.75538150  0.15507969    -0.12400
F563        F  0.74751174  0.77988646  0.04378537    -0.13000
C564        C  0.76629416  0.75740391  0.15653898     0.16800
C565        C  0.77212981  0.74632839  0.17230376     0.26200
C566        C  0.76925141  0.72849060  0.16128118    -0.40100
C567        C  0.76105345  0.72242236  0.13373003     0.33200
C568        C  0.75510886  0.73340209  0.11815134     0.14900
F569        F  0.76886301  0.77431378  0.16796633    -0.12400
F570        F  0.75830059  0.70552195  0.12194834    -0.12900
F571        F  0.77967350  0.75256313  0.19884978    -0.15200
F572        F  0.74607232  0.72632126  0.09250367    -0.13800
F573        F  0.76809678  0.76666810  0.07285050    -0.13800
F574        F  0.70886164  0.77018149  0.12726684    -0.15200
C575        C  0.95418863  0.59748657  0.03529934     0.14900
C576        C  0.93932644  0.59852805  0.04962665     0.01800
C577        C  0.93488663  0.59167826  0.07790143     0.16800
C578        C  0.94558108  0.58457352  0.09184501     0.26200
C579        C  0.96108062  0.58435026  0.07786210    -0.40100
C580        C  0.96499168  0.59057696  0.04924032     0.33300
C581        C  0.93004892  0.60862539  0.03596234     0.01900
F582        F  0.92044476  0.59227806  0.09221622    -0.12400
F583        F  0.97952587  0.59025314  0.03472185    -0.13000
C584        C  0.91926750  0.60165533  0.01018412     0.16800
C585        C  0.90501675  0.60617915  0.50341696     0.26200
C586        C  0.91588821  0.63047872  0.00798851    -0.40100
C587        C  0.92628778  0.63709327  0.03415465     0.33200
C588        C  0.93324684  0.62631529  0.04788864     0.14900
F589        F  0.91584474  0.58455154  0.99817517    -0.12400
F590        F  0.93002411  0.65423823  0.04647194    -0.12900
F591        F  0.89639923  0.59919496  0.47754953    -0.15200
F592        F  0.94396369  0.63371519  0.07237675    -0.13800
F593        F  0.95897566  0.60411941  0.00811839    -0.13800
F594        F  0.94144738  0.57888799  0.11944327    -0.15200
C595        C  0.81568626  0.66365314  0.10499725     0.14900
C596        C  0.83576698  0.67987498  0.10039122     0.01800
C597        C  0.84419275  0.69697561  0.11771910     0.16800
C598        C  0.83285308  0.69785437  0.13939937     0.26200
C599        C  0.81277365  0.68152735  0.14441825    -0.40100
C600        C  0.80428880  0.66443057  0.12682397     0.33300
C601        C  0.84806058  0.67889764  0.07781758     0.01900
F602        F  0.86362073  0.71276842  0.11398730    -0.12400
F603        F  0.78495503  0.64847030  0.13055939    -0.13000
C604        C  0.85723187  0.69403752  0.05684122     0.16800
C605        C  0.86898867  0.69314464  0.03573846     0.26200
C606        C  0.87128507  0.67683156  0.03487384    -0.40100
C607        C  0.86216615  0.66172889  0.05580949     0.33200
C608        C  0.85088790  0.66290207  0.07734417     0.14900
F609        F  0.85431479  0.70937113  0.05632023    -0.12400
F610        F  0.86447702  0.64599731  0.05565419    -0.12900
F611        F  0.88714616  0.71184628  0.52171888    -0.15200
F612        F  0.84295251  0.64855958  0.09799392    -0.13800
F613        F  0.80699495  0.64715587  0.08802529    -0.13800
F614        F  0.84166262  0.71483228  0.15539000    -0.15200
C615        C  0.81107973  0.65852002  0.31699013     0.14900
C616        C  0.82789310  0.67489259  0.33069327     0.01800
C617        C  0.83445608  0.69464435  0.32213942     0.16800
C618        C  0.82475194  0.69794089  0.29976919     0.26200
C619        C  0.80829270  0.68150354  0.28535834    -0.40100
C620        C  0.80135332  0.66174661  0.29472593     0.33300
C621        C  0.83851201  0.67131598  0.35387539     0.01900
F622        F  0.85068016  0.71080570  0.33495456    -0.12400
F623        F  0.78504159  0.64535546  0.28241108    -0.13000
C624        C  0.84678782  0.65977330  0.34912429     0.16800
C625        C  0.85718448  0.65682572  0.37085477     0.26200
C626        C  0.85969047  0.66555939  0.39765901    -0.40100
C627        C  0.85105711  0.67677032  0.40247425     0.33200
C628        C  0.84049190  0.67949471  0.38090912     0.14900
F629        F  0.84539591  0.65192227  0.32310970    -0.12400
F630        F  0.85269266  0.68500024  0.42827078    -0.12900
F631        F  0.86560849  0.64625794  0.36525727    -0.15200
F632        F  0.83199221  0.68999407  0.38653555    -0.13800
F633        F  0.80390200  0.63930362  0.32538940    -0.13800
F634        F  0.83173345  0.71720963  0.29195368    -0.15200
C635        C  0.01439449  0.73850557  0.35105565     0.14900
C636        C  0.01397715  0.73328321  0.37966838     0.01800
C637        C  0.03162706  0.73678283  0.39262626     0.16800
C638        C  0.04926057  0.74447590  0.37681829     0.26200
C639        C  0.04953780  0.74896242  0.34777587    -0.40100
C640        C  0.03210720  0.74646913  0.33524738     0.33300
C641        C  0.99465017  0.72213924  0.39511634     0.01900
F642        F  0.03150153  0.73190793  0.42031055    -0.12400
F643        F  0.03187239  0.75074044  0.30738300    -0.13000
C644        C  0.98089959  0.70156984  0.38959469     0.16800
C645        C  0.96254858  0.69060581  0.40404524     0.26200
C646        C  0.95749547  0.70009775  0.42429687    -0.40100
C647        C  0.97165651  0.72070746  0.43028740     0.33200
C648        C  0.99009851  0.73161569  0.41578454     0.14900
F649        F  0.98542209  0.69203383  0.37033529    -0.12400
F650        F  0.96766699  0.73038620  0.45000046    -0.12900
F651        F  0.94984229  0.67063837  0.39823029    -0.15200
F652        F  0.00344333  0.75146684  0.42168884    -0.13800
F653        F  0.99743616  0.73528855  0.33824498    -0.13800
F654        F  0.06598936  0.74729576  0.38989207    -0.15200
C655        C  0.60185042  0.65592470  0.46793465     0.14900
C656        C  0.60367480  0.67263837  0.45429081     0.01800
C657        C  0.59563882  0.67032886  0.42679801     0.16800
C658        C  0.58714735  0.65193107  0.41247587     0.26200
C659        C  0.58708962  0.63581500  0.42525425    -0.40100
C660        C  0.59365003  0.63770386  0.45357794     0.33300
C661        C  0.61602396  0.69280247  0.46765189     0.01900
F662        F  0.59674883  0.68613765  0.41345719    -0.12400
F663        F  0.59273020  0.62205642  0.46716685    -0.13000
C664        C  0.63402334  0.70800533  0.45466757     0.16800
C665        C  0.64726362  0.72617272  0.46866465     0.26200
C666        C  0.64277683  0.72956873  0.49604301    -0.40100
C667        C  0.62442120  0.71451040  0.50869222     0.33200
C668        C  0.61119409  0.69629567  0.49460455     0.14900
F669        F  0.63925095  0.70490604  0.42884973    -0.12400
F670        F  0.61817185  0.71846209  0.03463816    -0.12900
F671        F  0.66460391  0.74033481  0.45538802    -0.15200
F672        F  0.59377691  0.68189529  0.50746416    -0.13800
F673        F  0.60930055  0.65763661  0.49454858    -0.13800
F674        F  0.58017283  0.65032966  0.38559127    -0.15200
C675        C  0.66272058  0.61125437  0.32284619     0.14900
C676        C  0.66584066  0.62404446  0.29990355     0.01800
C677        C  0.65117481  0.62813205  0.29327604     0.16800
C678        C  0.63372327  0.61987446  0.30951031     0.26200
C679        C  0.63053584  0.60730614  0.33299354    -0.40100
C680        C  0.64517581  0.60290746  0.33931027     0.33300
C681        C  0.68484163  0.63429418  0.28364237     0.01900
F682        F  0.65387145  0.64032636  0.27100411    -0.12400
F683        F  0.64270174  0.59078834  0.36154763    -0.13000
C684        C  0.68915369  0.62355584  0.26485793     0.16800
C685        C  0.70670419  0.63375612  0.24832776     0.26200
C686        C  0.72026923  0.65486718  0.25058373    -0.40100
C687        C  0.71555144  0.66553300  0.26914489     0.33200
C688        C  0.69809050  0.65531526  0.28553162     0.14900
F689        F  0.67617219  0.60326225  0.26217116    -0.12400
F690        F  0.72778905  0.68593311  0.27156454    -0.12900
F691        F  0.71039793  0.62294939  0.23026906    -0.15200
F692        F  0.69409019  0.66598400  0.30342872    -0.13800
F693        F  0.67692754  0.60734624  0.32975909    -0.13800
F694        F  0.62000588  0.62434559  0.30209714    -0.15200
C695        C  0.48423665  0.49736694  0.01173430     0.14900
C696        C  0.50476094  0.50394996  0.01067746     0.01800
C697        C  0.51271348  0.49790734  0.03220471     0.16800
C698        C  0.50046821  0.48566877  0.05448934     0.26200
C699        C  0.47996641  0.47934107  0.05591672    -0.40100
C700        C  0.47199899  0.48531790  0.03421228     0.33300
C701        C  0.52162478  0.52110475  0.49908149     0.01900
F702        F  0.53256983  0.50440818  0.03217900    -0.12400
F703        F  0.45231594  0.47938081  0.03452574    -0.13000
C704        C  0.52482717  0.54014177  0.49430209     0.16800
C705        C  0.53608811  0.55181623  0.47114439     0.26200
C706        C  0.54493144  0.54499147  0.45275136    -0.40100
C707        C  0.54296631  0.52659444  0.45853425     0.33200
C708        C  0.53114863  0.51457431  0.48138220     0.14900
F709        F  0.51685914  0.54737672  0.51200033    -0.12400
F710        F  0.55151429  0.51976102  0.44123244    -0.12900
F711        F  0.53835684  0.56989092  0.46668049    -0.15200
F712        F  0.52826074  0.49619736  0.48541197    -0.13800
F713        F  0.48110667  0.51060699  0.50210176    -0.13800
F714        F  0.50892641  0.48041606  0.07497595    -0.15200
C715        C  0.53261077  0.52227655  0.27301293     0.14900
C716        C  0.51564018  0.52160878  0.26247892     0.01800
C717        C  0.50989909  0.53374424  0.27494405     0.16800
C718        C  0.52068677  0.54594479  0.29822269     0.26200
C719        C  0.53728992  0.54605614  0.30940111    -0.40100
C720        C  0.54327003  0.53427177  0.29628722     0.33300
C721        C  0.50372124  0.50777813  0.23899619     0.01900
F722        F  0.49352587  0.53335006  0.26504726    -0.12400
F723        F  0.55972402  0.53459640  0.30563457    -0.13000
C724        C  0.49518811  0.48693776  0.24194811     0.16800
C725        C  0.48417471  0.47376821  0.21970074     0.26200
C726        C  0.48129697  0.48121140  0.19422588    -0.40100
C727        C  0.48986546  0.50211447  0.19133187     0.33200
C728        C  0.50109398  0.51528462  0.21347216     0.14900
F729        F  0.49719852  0.47929692  0.26667151    -0.12400
F730        F  0.48768802  0.50989454  0.16686816    -0.12900
F731        F  0.47578165  0.45368362  0.22346684    -0.15200
F732        F  0.50974485  0.53542495  0.20979408    -0.13800
F733        F  0.53900292  0.51141052  0.26050755    -0.13800
F734        F  0.51454256  0.55715716  0.31025102    -0.15200
C735        C  0.42253573  0.07921882  0.32711403     0.14900
C736        C  0.41287505  0.07150667  0.30076503     0.01800
C737        C  0.41022746  0.05356651  0.29081748     0.16800
C738        C  0.41653758  0.04322126  0.30719343     0.26200
C739        C  0.42563958  0.05056010  0.33397286    -0.40100
C740        C  0.42883891  0.06883555  0.34359636     0.33300
C741        C  0.40376824  0.08095954  0.28499179     0.01900
F742        F  0.40070777  0.04553265  0.26572113    -0.12400
F743        F  0.43731800  0.07625522  0.36941155    -0.13000
C744        C  0.40835470  0.08667239  0.25631906     0.16800
C745        C  0.39826624  0.09396724  0.24116299     0.26200
C746        C  0.38337190  0.09558789  0.25444416    -0.40100
C747        C  0.37929004  0.09037429  0.28333566     0.33200
C748        C  0.38928400  0.08308454  0.29833377     0.14900
F749        F  0.42245778  0.08499474  0.24293398    -0.12400
F750        F  0.36544915  0.09220576  0.29721988    -0.12900
F751        F  0.40250858  0.09867076  0.21330383    -0.15200
F752        F  0.38415362  0.07728729  0.32574492    -0.13800
F753        F  0.42556851  0.09668312  0.33709431    -0.13800
F754        F  0.41362517  0.02590041  0.29678287    -0.15200
C755        C  0.25202522  0.98842322  0.11405039     0.14900
C756        C  0.27083008  0.99884462  0.12801617     0.01800
C757        C  0.28280898  0.99085965  0.12813946     0.16800
C758        C  0.27654484  0.97311478  0.11360894     0.26200
C759        C  0.25814258  0.96301314  0.09833816    -0.40100
C760        C  0.24569588  0.97059566  0.09924633     0.33300
C761        C  0.27934707  0.01906474  0.14017658     0.01900
F762        F  0.30096703  0.00066259  0.14179550    -0.12400
F763        F  0.22745005  0.96079863  0.08587153    -0.13000
C764        C  0.27348826  0.02152465  0.16698940     0.16800
C765        C  0.28473964  0.04029873  0.18066383     0.26200
C766        C  0.30209449  0.05670313  0.16767045    -0.40100
C767        C  0.30685867  0.05439977  0.13987104     0.33200
C768        C  0.29560644  0.03577723  0.12634960     0.14900
F769        F  0.25767712  0.00548620  0.18056909    -0.12400
F770        F  0.32288552  0.07001205  0.12596816    -0.12900
F771        F  0.27937471  0.04204123  0.20715700    -0.15200
F772        F  0.30123532  0.03373498  0.10017984    -0.13800
F773        F  0.24014239  0.99583859  0.11403575    -0.13800
F774        F  0.28890943  0.96624495  0.11382246    -0.15200
C775        C  0.35372455  0.16107159  0.09340085     0.14900
C776        C  0.34604856  0.17314886  0.09776879     0.01800
C777        C  0.34090327  0.17521484  0.12531426     0.16800
C778        C  0.34294439  0.16500245  0.14804081     0.26200
C779        C  0.35024466  0.15257967  0.14362349    -0.40100
C780        C  0.35585577  0.15090605  0.11615863     0.33300
C781        C  0.34389745  0.18403010  0.07375795     0.01900
F782        F  0.33406675  0.18729376  0.13021036    -0.12400
F783        F  0.36239827  0.13860307  0.11110290    -0.13000
C784        C  0.32481136  0.17987715  0.06573317     0.16800
C785        C  0.32299264  0.19063484  0.04346260     0.26200
C786        C  0.34028150  0.20575774  0.02877692    -0.40100
C787        C  0.35937228  0.20969901  0.03689815     0.33200
C788        C  0.36110268  0.19896179  0.05910633     0.14900
F789        F  0.30789080  0.16518120  0.07925096    -0.12400
F790        F  0.37655853  0.22412806  0.02359569    -0.12900
F791        F  0.30430603  0.18611843  0.03622196    -0.15200
F792        F  0.37973149  0.20346438  0.06675259    -0.13800
F793        F  0.35855359  0.15862614  0.06691345    -0.13800
F794        F  0.33789055  0.16735514  0.17444314    -0.15200
C795        C  0.35272486  0.20563215  0.34117691     0.14900
C796        C  0.34424734  0.18487696  0.34509999     0.01800
C797        C  0.33567609  0.17588192  0.37130992     0.16800
C798        C  0.33552018  0.18741748  0.39333231     0.26200
C799        C  0.34401910  0.20821578  0.38955749    -0.40100
C800        C  0.35262128  0.21724402  0.36327018     0.33300
C801        C  0.34437639  0.17248831  0.32203434     0.01900
F802        F  0.32768635  0.15591819  0.37566514    -0.12400
F803        F  0.36018198  0.23708771  0.35861372    -0.13000
C804        C  0.36274595  0.17604662  0.31227754     0.16800
C805        C  0.36286745  0.16382158  0.29125528     0.26200
C806        C  0.34454002  0.14782031  0.27948640    -0.40100
C807        C  0.32614086  0.14431165  0.28940209     0.33200
C808        C  0.32608943  0.15654177  0.31049678     0.14900
F809        F  0.38057472  0.19108937  0.32363889    -0.12400
F810        F  0.30817258  0.12927393  0.27839795    -0.12900
F811        F  0.38095385  0.16748859  0.28282769    -0.15200
F812        F  0.30815825  0.15297429  0.31948696    -0.13800
F813        F  0.36061690  0.21450201  0.31572560    -0.13800
F814        F  0.32735100  0.17828502  0.41855611    -0.15200
C815        C  0.40632381  0.32056996  0.02939508     0.14900
C816        C  0.39891375  0.33277461  0.03474153     0.01800
C817        C  0.38109410  0.32838988  0.02089390     0.16800
C818        C  0.37721567  0.30033024  0.52814675     0.26200
C819        C  0.37736959  0.29898708  0.99871978    -0.40100
C820        C  0.39573762  0.30392434  0.01125211     0.33300
C821        C  0.40908114  0.34962257  0.05541618     0.01900
F822        F  0.37401099  0.34039509  0.02450597    -0.12400
F823        F  0.40271649  0.29185788  0.00747462    -0.13000
C824        C  0.42967791  0.36527044  0.05269311     0.16800
C825        C  0.43825715  0.38235911  0.07011202     0.26200
C826        C  0.42623986  0.38408711  0.09002377    -0.40100
C827        C  0.40609501  0.36799567  0.09385876     0.33200
C828        C  0.39767743  0.35078521  0.07706667     0.14900
F829        F  0.44109302  0.36466443  0.03197062    -0.12400
F830        F  0.39432407  0.36933184  0.11324107    -0.12900
F831        F  0.45775215  0.39786660  0.06595569    -0.15200
F832        F  0.37809649  0.33550060  0.08131191    -0.13800
F833        F  0.42320810  0.32411488  0.04286399    -0.13800
F834        F  0.36365707  0.28350561  0.54299570    -0.15200
C835        C  0.09487812  0.41905366  0.49458064     0.14900
C836        C  0.09311271  0.41810267  0.46481088     0.01800
C837        C  0.10054932  0.40832404  0.44977309     0.16800
C838        C  0.10821340  0.39843530  0.46429750     0.26200
C839        C  0.10099139  0.38860308  0.99416154    -0.40100
C840        C  0.10131366  0.40478218  0.00683755     0.33300
C841        C  0.08115945  0.42484630  0.44990056     0.01900
F842        F  0.09903315  0.40705651  0.42108713    -0.12400
F843        F  0.10778076  0.41012608  0.03399245    -0.13000
C844        C  0.08914948  0.43856300  0.42703373     0.16800
C845        C  0.07709738  0.44375139  0.41232390     0.26200
C846        C  0.05681163  0.43530092  0.42026019    -0.40100
C847        C  0.04900957  0.42167740  0.44333683     0.33200
C848        C  0.06096948  0.41645680  0.45775198     0.14900
F849        F  0.10862592  0.44694641  0.41895224    -0.12400
F850        F  0.02959576  0.41303711  0.45194210    -0.12900
F851        F  0.08524270  0.45683241  0.39016687    -0.15200
F852        F  0.05249892  0.40252782  0.47890841    -0.13800
F853        F  0.09311150  0.42954655  0.00526718    -0.13800
F854        F  0.11459690  0.38850392  0.44916130    -0.15200
C855        C  0.99198224  0.28036166  0.12805405     0.14900
C856        C  0.00516019  0.27432041  0.13461444     0.01800
C857        C  0.00054641  0.26084220  0.15725857     0.16800
C858        C  0.98303534  0.25378060  0.17348022     0.26200
C859        C  0.97004417  0.26035433  0.16742586    -0.40100
C860        C  0.97466056  0.27349190  0.14412152     0.33300
C861        C  0.02453788  0.28391041  0.11919766     0.01900
F862        F  0.01309803  0.25471101  0.16377486    -0.12400
F863        F  0.96261123  0.28010156  0.13691910    -0.13000
C864        C  0.04220398  0.29981618  0.13197202     0.16800
C865        C  0.05973503  0.31188366  0.11601555     0.26200
C866        C  0.05999682  0.30812954  0.08691069    -0.40100
C867        C  0.04250891  0.29156892  0.07444207     0.33200
C868        C  0.02487280  0.27965526  0.09044047     0.14900
F869        F  0.04210397  0.30439537  0.15959579    -0.12400
F870        F  0.04210558  0.28757005  0.04645104    -0.12900
F871        F  0.07634005  0.32751481  0.12902831    -0.15200
F872        F  0.00785753  0.26444431  0.07762121    -0.13800
F873        F  0.99636587  0.29366850  0.10659251    -0.13800
F874        F  0.97898511  0.24075830  0.19518863    -0.15200
C875        C  0.33068914  0.39662326  0.24626230     0.14900
C876        C  0.33152123  0.39212890  0.21770110     0.01800
C877        C  0.31386957  0.37634035  0.20461251     0.16800
C878        C  0.29587788  0.36496357  0.21986193     0.26200
C879        C  0.29510565  0.36905581  0.24866502    -0.40100
C880        C  0.31264756  0.38520675  0.26160800     0.33300
C881        C  0.35106372  0.40261623  0.20223798     0.01900
F882        F  0.31422138  0.37136838  0.17727196    -0.12400
F883        F  0.31255771  0.38953072  0.28934555    -0.13000
C884        C  0.36727839  0.40204730  0.21318127     0.16800
C885        C  0.38528196  0.41051039  0.19809168     0.26200
C886        C  0.38750814  0.41956417  0.17130728    -0.40100
C887        C  0.37130804  0.42034466  0.16041284     0.33200
C888        C  0.35329137  0.41202716  0.17582721     0.14900
F889        F  0.36542894  0.39254560  0.23814959    -0.12400
F890        F  0.37264618  0.42867096  0.13459745    -0.12900
F891        F  0.40047205  0.40955502  0.20978693    -0.15200
F892        F  0.33796196  0.41307103  0.16490212    -0.13800
F893        F  0.34745258  0.41195507  0.25939708    -0.13800
F894        F  0.27915960  0.34989966  0.20629212    -0.15200
C895        C  0.29070581  0.26735330  0.37393517     0.14900
C896        C  0.27162317  0.26133184  0.38435718     0.01800
C897        C  0.26499833  0.25046617  0.41004788     0.16800
C898        C  0.27743356  0.24594892  0.42515903     0.26200
C899        C  0.29673011  0.25229507  0.41483100    -0.40100
C900        C  0.30304968  0.26286451  0.38882388     0.33300
C901        C  0.25984565  0.26816561  0.36925020     0.01900
F902        F  0.24655108  0.24432516  0.42055743    -0.12400
F903        F  0.32137441  0.26915502  0.37767079    -0.13000
C904        C  0.25554514  0.26436408  0.34009114     0.16800
C905        C  0.24893607  0.27476080  0.32428613     0.26200
C906        C  0.24638400  0.28901968  0.33747480    -0.40100
C907        C  0.24912196  0.29155542  0.36704778     0.33200
C908        C  0.25580593  0.28125860  0.38276079     0.14900
F909        F  0.25884001  0.25138002  0.32665190    -0.12400
F910        F  0.24604851  0.30463798  0.38066693    -0.12900
F911        F  0.24657206  0.27202163  0.29582310    -0.15200
F912        F  0.25980477  0.28529179  0.41081810    -0.13800
F913        F  0.29783570  0.27839769  0.34969564    -0.13800
F914        F  0.27074816  0.23576715  0.45010499    -0.15200
C915        C  0.16326120  0.35384680  0.15631125     0.14900
C916        C  0.17272342  0.34343487  0.15179423     0.01800
C917        C  0.17238973  0.33628017  0.12460730     0.16800
C918        C  0.16251010  0.33920897  0.10230522     0.26200
C919        C  0.15287073  0.34949638  0.10674445    -0.40100
C920        C  0.15345747  0.35692287  0.13392748     0.33300
C921        C  0.18343499  0.34047392  0.17520705     0.01900
F922        F  0.18184718  0.32662085  0.11961765    -0.12400
F923        F  0.14375797  0.36631023  0.13913329    -0.13000
C924        C  0.17651879  0.32101273  0.18543052     0.16800
C925        C  0.18687563  0.31833645  0.20744454     0.26200
C926        C  0.20425317  0.33513362  0.21973111    -0.40100
C927        C  0.21136136  0.35458150  0.20884703     0.33200
C928        C  0.20101604  0.35717669  0.18688347     0.14900
F929        F  0.15949778  0.30463714  0.17441937    -0.12400
F930        F  0.22857075  0.37116679  0.21909246    -0.12900
F931        F  0.17963964  0.29937410  0.21708831    -0.15200
F932        F  0.20837340  0.37603175  0.17660690    -0.13800
F933        F  0.16304951  0.36052697  0.18259967    -0.13800
F934        F  0.16249021  0.33207216  0.07625437    -0.15200
C935        C  0.14873591  0.32943468  0.42634433     0.14900
C936        C  0.17002453  0.34122296  0.42636361     0.01800
C937        C  0.18040028  0.35438400  0.44905409     0.16800
C938        C  0.16974801  0.35611044  0.47104379     0.26200
C939        C  0.14839426  0.34463328  0.47086560    -0.40100
C940        C  0.13800781  0.33104116  0.44844352     0.33300
C941        C  0.18150801  0.33974174  0.40293811     0.01900
F942        F  0.20094122  0.36537989  0.45012760    -0.12400
F943        F  0.11746906  0.31964023  0.44748056    -0.13000
C944        C  0.19520759  0.35690951  0.38682332     0.16800
C945        C  0.20651774  0.35565454  0.36530439     0.26200
C946        C  0.20405774  0.33711352  0.35914811    -0.40100
C947        C  0.19027740  0.31992025  0.37526614     0.33200
C948        C  0.17923474  0.32127640  0.39707182     0.14900
F949        F  0.19740255  0.37485737  0.39166509    -0.12400
F950        F  0.18791456  0.30188287  0.37050900    -0.12900
F951        F  0.21950254  0.37247504  0.35003097    -0.15200
F952        F  0.16670128  0.30465772  0.41301084    -0.13800
F953        F  0.13831931  0.31670607  0.40453922    -0.13800
F954        F  0.17976031  0.36738832  0.99604790    -0.15200
O955        O  0.23100228  0.34919691  0.82809806    -0.55600
C956        C  0.27167495  0.35378550  0.76364319     0.77000
O957        O  0.22933076  0.29558098  0.80104403    -0.56800
C958        C  0.21389086  0.33466323  0.83681141     0.77000
C959        C  0.21090173  0.33146241  0.74558160     0.79400
Cd960      Cd  0.23360874  0.32901660  0.79147396     1.37500
O961        O  0.26711940  0.36048709  0.78455949    -0.55600
O962        O  0.22327779  0.34617416  0.76105603    -0.54400
C963        C  0.24106558  0.30226363  0.82259617     0.79300
O964        O  0.20801592  0.31439518  0.75186927    -0.56800
O965        O  0.25900971  0.33549279  0.75706642    -0.55300
O966        O  0.20606285  0.31791910  0.82415521    -0.55200
O967        O  0.24908990  0.32073181  0.82833209    -0.54400
O968        O  0.11846584  0.33473337  0.49803114    -0.55600
C969        C  0.07834809  0.32872677  0.56545090     0.77000
O970        O  0.14174895  0.36971586  0.57737130    -0.56800
C971        C  0.13722965  0.34738755  0.49351864     0.77000
C972        C  0.11250385  0.38410121  0.50917307     0.79400
Cd973      Cd  0.11679775  0.35416002  0.53744830     1.37500
O974        O  0.08228106  0.32261788  0.54321837    -0.55600
O975        O  0.10659343  0.36711107  0.49859772    -0.54400
C976        C  0.14115796  0.35362112  0.58252375     0.79300
O977        O  0.12108769  0.38787402  0.53331073    -0.56800
O978        O  0.09164523  0.34651018  0.57319789    -0.55300
O979        O  0.14608899  0.36282360  0.50930232    -0.55200
O980        O  0.12964973  0.33863334  0.56685968    -0.54400
O981        O  0.35585733  0.23794689  0.91693405    -0.55600
C982        C  0.36450951  0.27978354  0.98340226     0.77000
O983        O  0.30470711  0.23660561  0.95341461    -0.56800
C984        C  0.34231193  0.21934660  0.91310052     0.77000
C985        C  0.33944299  0.21828733  0.50410042     0.79400
Cd986      Cd  0.33836217  0.24083198  0.95822212     1.37500
O987        O  0.37166703  0.27277581  0.96673897    -0.55600
O988        O  0.35415764  0.22967846  0.99060543    -0.54400
C989        C  0.30932604  0.24672238  0.93045554     0.79300
O990        O  0.32233521  0.21570438  0.99794072    -0.56800
O991        O  0.34556315  0.26918526  0.98713887    -0.55300
O992        O  0.32757530  0.21129410  0.93010392    -0.55200
O993        O  0.32693802  0.25367533  0.92112375    -0.54400
O994        O  0.32716969  0.11778753  0.74753458    -0.55600
C995        C  0.32024805  0.07588318  0.67960027     0.77000
O996        O  0.36206072  0.13596279  0.66896350    -0.56800
C997        C  0.34254264  0.13502609  0.75442921     0.77000
C998        C  0.37246610  0.10555009  0.74056395     0.79400
Cd999      Cd  0.34560034  0.11286425  0.70981766     1.37500
O1000       O  0.31345066  0.07981377  0.70111061    -0.55600
O1001       O  0.35401638  0.09737443  0.74686294    -0.54400
C1002       C  0.34751674  0.13826214  0.66507121     0.79300
O1003       O  0.37872030  0.11702051  0.71886070    -0.56800
O1004       O  0.33859410  0.08864116  0.67351731    -0.55300
O1005       O  0.35854859  0.14151023  0.74034997    -0.55200
O1006       O  0.33283698  0.12920657  0.68210233    -0.54400
O1007       O  0.60915891  0.59015641  0.86483852    -0.55600
C1008       C  0.55518749  0.55868411  0.92131658     0.77000
O1009       O  0.57420256  0.61580148  0.88278232    -0.56800
C1010       C  0.61356587  0.60272480  0.84476500     0.77000
C1011       C  0.54864479  0.56006083  0.83254063     0.79400
Cd1012     Cd  0.57619671  0.58598335  0.87535512     1.37500
O1013       O  0.57139804  0.56095122  0.91216396    -0.55600
O1014       O  0.56136249  0.55743197  0.84458361    -0.54400
C1015       C  0.58498932  0.62110966  0.90519457     0.79300
O1016       O  0.54842409  0.57524120  0.84033671    -0.56800
O1017       O  0.54930929  0.56884901  0.90908647    -0.55300
O1018       O  0.60089007  0.60737737  0.83970579    -0.55200
O1019       O  0.59170181  0.61048311  0.91271409    -0.54400
O1020       O  0.44914727  0.46656597  0.59081536    -0.55600
C1021       C  0.40157116  0.42614323  0.65485164     0.77000
O1022       O  0.44112241  0.41165178  0.61766410    -0.56800
C1023       C  0.46648282  0.46942953  0.58722224     0.77000
C1024       C  0.46274583  0.46476251  0.67623464     0.79400
Cd1025     Cd  0.43972339  0.44133598  0.62859541     1.37500
O1026       O  0.40733370  0.43901559  0.63481656    -0.55600
O1027       O  0.45354393  0.46968930  0.65950170    -0.54400
C1028       C  0.43025329  0.40733041  0.59541428     0.79300
O1029       O  0.46147398  0.44839226  0.67079310    -0.56800
O1030       O  0.41305765  0.42017410  0.66106946    -0.55300
O1031       O  0.47103792  0.45961835  0.60329209    -0.55200
O1032       O  0.42376713  0.41844885  0.58985811    -0.54400
O1033       O  0.93478782  0.70199380  0.95751212    -0.55600
C1034       C  0.88048074  0.67318721  0.51083859     0.77000
O1035       O  0.87794321  0.65662637  0.92274257    -0.56800
C1036       C  0.93948301  0.69522269  0.93684505     0.77000
C1037       C  0.91019380  0.64318235  0.99258831     0.79400
Cd1038     Cd  0.90150343  0.67018505  0.96462719     1.37500
O1039       O  0.89879438  0.68977653  0.00213154    -0.55600
O1040       O  0.91865578  0.66165038  0.99879101    -0.54400
C1041       C  0.87738854  0.67232871  0.92035292     0.79300
O1042       O  0.89707251  0.63657459  0.97267392    -0.56800
O1043       O  0.87477114  0.65802234  0.99910291    -0.55300
O1044       O  0.92664949  0.67708474  0.92987741    -0.55200
O1045       O  0.88710339  0.68588166  0.93878086    -0.54400
O1046       O  0.78791890  0.67857313  0.67253472    -0.55600
C1047       C  0.74561319  0.67319054  0.73733887     0.77000
O1048       O  0.80995646  0.71273805  0.75222061    -0.56800
C1049       C  0.80646698  0.69187630  0.66762982     0.77000
C1050       C  0.78051914  0.72614931  0.68151632     0.79400
Cd1051     Cd  0.78520360  0.69741013  0.71187166     1.37500
O1052       O  0.75057953  0.66589411  0.71769367    -0.55600
O1053       O  0.77309015  0.70817289  0.67366377    -0.54400
C1054       C  0.80723140  0.69592405  0.75954497     0.79300
O1055       O  0.79053428  0.73148297  0.70464907    -0.56800
O1056       O  0.75868970  0.69133833  0.74397250    -0.55300
O1057       O  0.81495096  0.70722784  0.68355715    -0.55200
O1058       O  0.79491111  0.68079810  0.74459294    -0.54400
O1059       O  0.68516420  0.90310396  0.74705447    -0.55600
C1060       C  0.68952906  0.94374331  0.81414612     0.77000
O1061       O  0.63264171  0.90079892  0.77918983    -0.56800
C1062       C  0.67128204  0.88477453  0.74195654     0.77000
C1063       C  0.67076120  0.88333374  0.83094432     0.79400
Cd1064     Cd  0.66660240  0.90571872  0.78629852     1.37500
O1065       O  0.69690027  0.94033110  0.79279334    -0.55600
O1066       O  0.68550249  0.89687846  0.81648458    -0.54400
C1067       C  0.63851503  0.91270534  0.75790307     0.79300
O1068       O  0.65335273  0.87974246  0.82476328    -0.56800
O1069       O  0.67191609  0.92963014  0.82163704    -0.55300
O1070       O  0.65555965  0.87682404  0.75713092    -0.55200
O1071       O  0.65673483  0.92065270  0.75055356    -0.54400
O1072       O  0.65259178  0.75412630  0.53323404    -0.55600
C1073       C  0.68101318  0.80558073  0.58519845     0.77000
O1074       O  0.72038554  0.79320883  0.54755141    -0.56800
C1075       C  0.65729556  0.74864618  0.51112659     0.77000
C1076       C  0.68756536  0.81195172  0.49273337     0.79400
Cd1077     Cd  0.68590320  0.78654593  0.53784935     1.37500
O1078       O  0.66610862  0.78903978  0.57559535    -0.55600
O1079       O  0.67475917  0.80526970  0.51248832    -0.54400
C1080       C  0.71365211  0.77894124  0.56560815     0.79300
O1081       O  0.70087109  0.80771444  0.49430144    -0.56800
O1082       O  0.69777085  0.81305358  0.57268226    -0.55300
O1083       O  0.67521223  0.76046093  0.50234664    -0.55200
O1084       O  0.69471423  0.76855731  0.56924329    -0.54400
O1085       O  0.99784310  0.44874246  0.91682743    -0.55600
C1086       C  0.99097188  0.40706767  0.84774408     0.77000
O1087       O  0.02793907  0.46964915  0.83620876    -0.56800
C1088       C  0.01243567  0.46690293  0.92130916     0.77000
C1089       C  0.04042338  0.43547287  0.90456632     0.79400
Cd1090     Cd  0.01435614  0.44477035  0.87600561     1.37500
O1091       O  0.98306474  0.41126484  0.86755457    -0.55600
O1092       O  0.02193310  0.42742177  0.91048680    -0.54400
C1093       C  0.01074759  0.46658956  0.82995416     0.79300
O1094       O  0.04748653  0.44858678  0.88467374    -0.56800
O1095       O  0.00941249  0.42014578  0.84232637    -0.55300
O1096       O  0.02738475  0.47433760  0.90468647    -0.55200
O1097       O  0.99597377  0.45394481  0.84523095    -0.54400
O1098       O  0.01908068  0.56828877  0.58857292    -0.55600
C1099       C  0.02485375  0.60723078  0.65840089     0.77000
O1100       O  0.96467598  0.56561461  0.62084010    -0.56800
C1101       C  0.00418851  0.55212783  0.57799137     0.77000
C1102       C  0.99526293  0.54198002  0.66858250     0.79400
Cd1103     Cd  0.99864242  0.57045627  0.62665019     1.37500
O1104       O  0.03083640  0.60419923  0.63526210    -0.55600
O1105       O  0.01060021  0.55252021  0.65304079    -0.54400
C1106       C  0.97055702  0.57890970  0.60145592     0.79300
O1107       O  0.98068020  0.54416969  0.66448098    -0.56800
O1108       O  0.00718338  0.59346344  0.66603652    -0.55300
O1109       O  0.98721282  0.54513650  0.58960487    -0.55200
O1110       O  0.98905865  0.58819576  0.59482634    -0.54400
O1111       O  0.91437705  0.27285278  0.71418334    -0.55600
C1112       C  0.88521322  0.21367716  0.66992578     0.77000
O1113       O  0.94656257  0.24419450  0.70305134    -0.56800
C1114       C  0.92542785  0.27863792  0.73637517     0.77000
C1115       C  0.89251631  0.21722606  0.76030510     0.79400
Cd1116     Cd  0.91364155  0.24099961  0.71129672     1.37500
O1117       O  0.88609873  0.22976300  0.67585506    -0.55600
O1118       O  0.88780984  0.22806104  0.74714366    -0.54400
C1119       C  0.95043118  0.25488600  0.68078512     0.79300
O1120       O  0.90735288  0.21701372  0.75063012    -0.56800
O1121       O  0.89714846  0.21061796  0.68349216    -0.55300
O1122       O  0.93102075  0.26737846  0.74544453    -0.55200
O1123       O  0.93753664  0.25888068  0.67377501    -0.54400
O1124       O  0.78403928  0.13248149  0.92669373    -0.55600
C1125       C  0.73681900  0.09402366  0.99490647     0.77000
O1126       O  0.76898007  0.07413869  0.95081720    -0.56800
C1127       C  0.79994059  0.13286164  0.92078257     0.77000
C1128       C  0.79784345  0.12873670  0.50760940     0.79400
Cd1129     Cd  0.77292608  0.10606558  0.96363744     1.37500
O1130       O  0.74301167  0.10766916  0.97587456    -0.55600
O1131       O  0.79454378  0.13485458  0.99305751    -0.54400
C1132       C  0.75764737  0.07109435  0.92952481     0.79300
O1133       O  0.79479797  0.10828334  0.00323329    -0.56800
O1134       O  0.74721478  0.08649381  0.99846685    -0.55300
O1135       O  0.80287772  0.12099327  0.93480248    -0.55200
O1136       O  0.75351093  0.08416918  0.92470633    -0.54400
O1137       O  0.41046207  0.98606026  0.88801243    -0.55600
C1138       C  0.46381693  0.01598190  0.83491266     0.77000
O1139       O  0.44739341  0.05280501  0.87301790    -0.56800
C1140       C  0.40633598  0.99144393  0.91079674     0.77000
C1141       C  0.47071252  0.02414773  0.92487389     0.79400
Cd1142     Cd  0.44320178  0.01956142  0.88126830     1.37500
O1143       O  0.44757234  0.00055181  0.84438298    -0.55600
O1144       O  0.46410127  0.01077935  0.90589150    -0.54400
C1145       C  0.43476343  0.04620311  0.85259432     0.79300
O1146       O  0.46520471  0.03644501  0.92328100    -0.56800
O1147       O  0.47014476  0.03262314  0.84708024    -0.55300
O1148       O  0.41893182  0.00939961  0.91861629    -0.55200
O1149       O  0.42588107  0.02760425  0.84706845    -0.54400
O1150       O  0.60154818  0.03631432  0.63176135    -0.55600
C1151       C  0.54511948  0.00843628  0.67843177     0.77000
O1152       O  0.54200697  0.99000570  0.59520599    -0.56800
C1153       C  0.60564348  0.03162463  0.60832068     0.77000
C1154       C  0.57322647  0.97524495  0.65968148     0.79400
Cd1155     Cd  0.56716096  0.00468560  0.63429922     1.37500
O1156       O  0.56347851  0.02241469  0.67373372    -0.55600
O1157       O  0.57963086  0.99235423  0.67028541    -0.54400
C1158       C  0.54323411  0.00643073  0.59007987     0.79300
O1159       O  0.56354031  0.97123657  0.63639107    -0.56800
O1160       O  0.53747453  0.99291359  0.66294632    -0.55300
O1161       O  0.59226505  0.01462427  0.59811239    -0.55200
O1162       O  0.55538934  0.02138150  0.60540320    -0.54400
O1163       O  0.12762416  0.78116141  0.83856998    -0.55600
C1164       C  0.09041579  0.73607203  0.77051360     0.77000
O1165       O  0.07304936  0.77364308  0.80459442    -0.56800
C1166       C  0.13136662  0.79878732  0.84234213     0.77000
C1167       C  0.12774055  0.79805963  0.75222998     0.79400
Cd1168     Cd  0.10403807  0.77355926  0.79850232     1.37500
O1169       O  0.10254042  0.74162843  0.79152403    -0.55600
O1170       O  0.13206854  0.78745804  0.76684535    -0.54400
C1171       C  0.06835086  0.76370757  0.82770047     0.79300
O1172       O  0.11211681  0.79773181  0.75946499    -0.56800
O1173       O  0.08438100  0.74741939  0.76390814    -0.55300
O1174       O  0.12297191  0.80443437  0.82527406    -0.55200
O1175       O  0.07987755  0.75828195  0.83619379    -0.54400
O1176       O  0.27270126  0.90880204  0.54184591    -0.55600
C1177       C  0.21732706  0.88070486  0.58992516     0.77000
O1178       O  0.24197983  0.94044752  0.55016885    -0.56800
C1179       C  0.28003799  0.92243072  0.52279583     0.77000
C1180       C  0.21712571  0.88733399  0.49918085     0.79400
Cd1181     Cd  0.24152441  0.90904066  0.54688945     1.37500
O1182       O  0.23569652  0.88640057  0.58715916    -0.55600
O1183       O  0.22923878  0.88370757  0.51092687    -0.54400
C1184       C  0.25101997  0.94529219  0.57399406     0.79300
O1185       O  0.21615342  0.90147495  0.50962193    -0.56800
O1186       O  0.21052534  0.88765204  0.57226558    -0.55300
O1187       O  0.26977634  0.92973582  0.51637228    -0.55200
O1188       O  0.25496918  0.93316926  0.58469848    -0.54400
C1189       C  0.16579073  0.81642759  0.69297736     0.14900
C1190       C  0.16618074  0.83330665  0.68300525     0.01800
C1191       C  0.15353106  0.83843919  0.69535062     0.16800
C1192       C  0.14072885  0.82685938  0.71767152     0.26200
C1193       C  0.14051167  0.81004282  0.72797267    -0.40100
C1194       C  0.15306981  0.80486420  0.71520107     0.33300
C1195       C  0.17938237  0.84510873  0.65908674     0.01900
F1196       F  0.15384626  0.85485442  0.68605459    -0.12400
F1197       F  0.15276841  0.78831949  0.72377937    -0.13000
C1198       C  0.17080015  0.84544157  0.63315697     0.16800
C1199       C  0.18317556  0.85633745  0.61027064     0.26200
C1200       C  0.20440384  0.86725523  0.61305082    -0.40100
C1201       C  0.21297131  0.86650036  0.63889909     0.33200
C1202       C  0.20051877  0.85548862  0.66176540     0.14900
F1203       F  0.15038167  0.83501425  0.62995710    -0.12400
F1204       F  0.23336594  0.87707011  0.64244434    -0.12900
F1205       F  0.17435114  0.85612169  0.58533437    -0.15200
F1206       F  0.20907780  0.85537759  0.68678210    -0.13800
F1207       F  0.17746972  0.81090286  0.68072592    -0.13800
F1208       F  0.12893655  0.83236861  0.72955895    -0.15200
C1209       C  0.19923348  0.85370190  0.94031650     0.14900
C1210       C  0.18024392  0.85059061  0.93504637     0.01800
C1211       C  0.17350419  0.86003532  0.95240259     0.16800
C1212       C  0.18548860  0.87213748  0.97507123     0.26200
C1213       C  0.20431928  0.87488710  0.98065679    -0.40100
C1214       C  0.21113595  0.86566487  0.96297720     0.33300
C1215       C  0.16753217  0.83730772  0.91153853     0.01900
F1216       F  0.15508349  0.85705291  0.94789238    -0.12400
F1217       F  0.22950148  0.86847700  0.96737449    -0.13000
C1218       C  0.16119654  0.81692550  0.91130052     0.16800
C1219       C  0.14978067  0.80444924  0.88861800     0.26200
C1220       C  0.14442355  0.81214746  0.86574510    -0.40100
C1221       C  0.15089437  0.83267409  0.86609474     0.33200
C1222       C  0.16229920  0.84508427  0.88880488     0.14900
F1223       F  0.16582861  0.80902820  0.93334982    -0.12400
F1224       F  0.14639883  0.84089900  0.84433300    -0.12900
F1225       F  0.14364436  0.78475600  0.88941232    -0.15200
F1226       F  0.16860336  0.86484225  0.88833687    -0.13800
F1227       F  0.20632859  0.84527532  0.92326259    -0.13800
F1228       F  0.17833345  0.88043996  0.99225366    -0.15200
C1229       C  0.31481554  0.94027263  0.96196053     0.14900
C1230       C  0.33238403  0.94343352  0.97492812     0.01800
C1231       C  0.33158270  0.93776187  0.00350542     0.16800
C1232       C  0.31378697  0.92991363  0.01914174     0.26200
C1233       C  0.29929990  0.92942573  0.50802239    -0.40100
C1234       C  0.30457402  0.94193703  0.48388008     0.33300
C1235       C  0.35186013  0.95436585  0.95937872     0.01900
F1236       F  0.34820894  0.94028125  0.01646669    -0.12400
F1237       F  0.29252815  0.94798323  0.47411820    -0.13000
C1238       C  0.36841688  0.97232504  0.97058009     0.16800
C1239       C  0.38622697  0.98385295  0.95512909     0.26200
C1240       C  0.38786636  0.97792372  0.92774673    -0.40100
C1241       C  0.37150569  0.95955988  0.91684639     0.33200
C1242       C  0.35366607  0.94788534  0.93256554     0.14900
F1243       F  0.36706515  0.97927841  0.99607886    -0.12400
F1244       F  0.37248694  0.95315049  0.89071782    -0.12900
F1245       F  0.40178943  0.00107007  0.96701489    -0.15200
F1246       F  0.33803962  0.93035531  0.92146050    -0.13800
F1247       F  0.31515506  0.94597763  0.93464683    -0.13800
F1248       F  0.31383684  0.92565254  0.04705309    -0.15200
C1249       C  0.52415831  0.02962435  0.53889300     0.14900
C1250       C  0.50928407  0.01268310  0.52375992     0.01800
C1251       C  0.50511467  0.99352201  0.53088588     0.16800
C1252       C  0.51601129  0.99137479  0.55252924     0.26200
C1253       C  0.53127589  0.00840709  0.56745161    -0.40100
C1254       C  0.53510343  0.02757380  0.56047349     0.33300
C1255       C  0.50423201  0.01998621  0.99321731     0.01900
F1256       F  0.49054389  0.97689465  0.51669084    -0.12400
F1257       F  0.54982344  0.04452255  0.57393747    -0.13000
C1258       C  0.50611951  0.01489438  0.96563213     0.16800
C1259       C  0.49589152  0.01712933  0.94319168     0.26200
C1260       C  0.48361508  0.02455987  0.94799967    -0.40100
C1261       C  0.48232587  0.03036435  0.97556342     0.33200
C1262       C  0.49260759  0.02809069  0.99805092     0.14900
F1263       F  0.51783953  0.00766156  0.96050933    -0.12400
F1264       F  0.47028270  0.03717734  0.98100103    -0.12900
F1265       F  0.49790695  0.01190432  0.91672734    -0.15200
F1266       F  0.48278565  0.02637753  0.52827152    -0.13800
F1267       F  0.54004088  0.05218752  0.01804123    -0.13800
F1268       F  0.51167112  0.97264660  0.55868879    -0.15200
C1269       C  0.50031103  0.99836912  0.72159980     0.14900
C1270       C  0.50987317  0.01240776  0.74363173     0.01800
C1271       C  0.53109707  0.02544776  0.74384012     0.16800
C1272       C  0.54257368  0.02434073  0.72251376     0.26200
C1273       C  0.53304900  0.01000461  0.70073449    -0.40100
C1274       C  0.51175405  0.99703583  0.70049883     0.33300
C1275       C  0.49772273  0.01322048  0.76658456     0.01900
F1276       F  0.54077973  0.03895175  0.76511683    -0.12400
F1277       F  0.50188675  0.98320258  0.67963346    -0.13000
C1278       C  0.48423631  0.99576692  0.78234671     0.16800
C1279       C  0.47288618  0.99652825  0.80419256     0.26200
C1280       C  0.47507596  0.01485013  0.81100795    -0.40100
C1281       C  0.48858214  0.03231921  0.79515883     0.33200
C1282       C  0.49963767  0.03144658  0.77300374     0.14900
F1283       F  0.48244390  0.97805606  0.77706913    -0.12400
F1284       F  0.49090669  0.05024243  0.80077203    -0.12900
F1285       F  0.46025148  0.97945885  0.81924040    -0.15200
F1286       F  0.51201297  0.04837561  0.75751251    -0.13800
F1287       F  0.47980344  0.98611408  0.72027203    -0.13800
F1288       F  0.56304209  0.03698228  0.72364090    -0.15200
C1289       C  0.69434763  0.07062623  0.55419622     0.14900
C1290       C  0.68145568  0.07721661  0.54877598     0.01800
C1291       C  0.68621567  0.09125072  0.52688690     0.16800
C1292       C  0.70437183  0.09187108  0.00553656     0.26200
C1293       C  0.71618132  0.09128677  0.51503377    -0.40100
C1294       C  0.71148374  0.07751610  0.53756293     0.33300
C1295       C  0.66196353  0.06761217  0.56392502     0.01900
F1296       F  0.67303533  0.08857666  0.01419416    -0.12400
F1297       F  0.72315686  0.07021915  0.54325454    -0.13000
C1298       C  0.66132429  0.06995782  0.59332167     0.16800
C1299       C  0.64288551  0.05886023  0.60784408     0.26200
C1300       C  0.62492122  0.04500969  0.59317891    -0.40100
C1301       C  0.62560293  0.04322476  0.56360374     0.33200
C1302       C  0.64392628  0.05443652  0.54916995     0.14900
F1303       F  0.67861713  0.08265489  0.60799574    -0.12400
F1304       F  0.60851322  0.03042437  0.54857876    -0.12900
F1305       F  0.64277238  0.06095109  0.63634724    -0.15200
F1306       F  0.64421029  0.05170716  0.52086125    -0.13800
F1307       F  0.68979425  0.05672099  0.57484113    -0.13800
F1308       F  0.70707411  0.10340235  0.98244612    -0.15200
C1309       C  0.84490336  0.18868426  0.61247420     0.14900
C1310       C  0.84794673  0.17392126  0.60253370     0.01800
C1311       C  0.86213116  0.17126608  0.61613084     0.16800
C1312       C  0.87367614  0.18369545  0.63872179     0.26200
C1313       C  0.87148490  0.19930718  0.64783005    -0.40100
C1314       C  0.85661067  0.20133938  0.63483705     0.33300
C1315       C  0.83670739  0.16182487  0.57738395     0.01900
F1316       F  0.86534417  0.15711350  0.60684893    -0.12400
F1317       F  0.85338608  0.21557592  0.64362541    -0.13000
C1318       C  0.83864555  0.17158886  0.55150648     0.16800
C1319       C  0.82649885  0.16063275  0.52839937     0.26200
C1320       C  0.81242449  0.13967445  0.53070428    -0.40100
C1321       C  0.81139749  0.12968695  0.55601093     0.33200
C1322       C  0.82343822  0.14072278  0.57927823     0.14900
F1323       F  0.85218101  0.19181769  0.54877531    -0.12400
F1324       F  0.79785791  0.10946987  0.55878798    -0.12900
F1325       F  0.83542118  0.16612851  0.99906212    -0.15200
F1326       F  0.82144284  0.13095384  0.60403019    -0.13800
F1327       F  0.83057088  0.19085355  0.60037013    -0.13800
F1328       F  0.88739179  0.18071824  0.65108512    -0.15200
C1329       C  0.86070711  0.20218715  0.82650007     0.14900
C1330       C  0.85576103  0.18248432  0.83144985     0.01800
C1331       C  0.86403673  0.17462971  0.81375562     0.16800
C1332       C  0.87666621  0.18615524  0.79114583     0.26200
C1333       C  0.88096622  0.20558811  0.78564832    -0.40100
C1334       C  0.87302021  0.21354329  0.80373036     0.33300
C1335       C  0.84161758  0.17008188  0.85464897     0.01900
F1336       F  0.85925114  0.15550557  0.81768979    -0.12400
F1337       F  0.87730508  0.23246514  0.79947003    -0.13000
C1338       C  0.82215486  0.16656099  0.85569265     0.16800
C1339       C  0.80875009  0.15484486  0.87744707     0.26200
C1340       C  0.81444065  0.14621026  0.89849885    -0.40100
C1341       C  0.83405995  0.14995474  0.89757500     0.33200
C1342       C  0.84750435  0.16184837  0.87597426     0.14900
F1343       F  0.81593224  0.17412911  0.83522268    -0.12400
F1344       F  0.84042411  0.14234120  0.91778915    -0.12900
F1345       F  0.79000396  0.15153041  0.87741241    -0.15200
F1346       F  0.86646438  0.16566373  0.87620818    -0.13800
F1347       F  0.85363828  0.21049011  0.84384757    -0.13800
F1348       F  0.88382823  0.17793645  0.77381640    -0.15200
C1349       C  0.06606168  0.66082915  0.68079999     0.14900
C1350       C  0.05899269  0.66208488  0.70741121     0.01800
C1351       C  0.04155015  0.64491063  0.71853144     0.16800
C1352       C  0.03083664  0.62703763  0.70291285     0.26200
C1353       C  0.03739070  0.62584368  0.67571966    -0.40100
C1354       C  0.05547716  0.64283031  0.66518330     0.33300
C1355       C  0.06875402  0.68156553  0.72280595     0.01900
F1356       F  0.03436630  0.64569660  0.74415238    -0.12400
F1357       F  0.06268522  0.64225373  0.63949052    -0.13000
C1358       C  0.06864030  0.69776465  0.71085596     0.16800
C1359       C  0.07585310  0.71546332  0.72629199     0.26200
C1360       C  0.08356790  0.71746522  0.75402523    -0.40100
C1361       C  0.08424863  0.70144592  0.76565450     0.33200
C1362       C  0.07672755  0.68358932  0.75026696     0.14900
F1363       F  0.06078066  0.69614446  0.68455013    -0.12400
F1364       F  0.09154042  0.70275929  0.79225721    -0.12900
F1365       F  0.07520617  0.73063952  0.71398583    -0.15200
F1366       F  0.07699573  0.66813796  0.76230456    -0.13800
F1367       F  0.08313380  0.67713233  0.66982654    -0.13800
F1368       F  0.01381554  0.61098658  0.71441880    -0.15200
C1369       C  0.94397402  0.33304821  0.75274150     0.14900
C1370       C  0.94732424  0.33353149  0.78216084     0.01800
C1371       C  0.94207629  0.31570284  0.79635540     0.16800
C1372       C  0.93431666  0.29781796  0.78136195     0.26200
C1373       C  0.93156610  0.29733166  0.75179797    -0.40100
C1374       C  0.93597832  0.31499327  0.73763346     0.33300
C1375       C  0.95782259  0.35277088  0.79795263     0.01900
F1376       F  0.94536635  0.31581944  0.82466554    -0.12400
F1377       F  0.93353310  0.31504514  0.70912737    -0.13000
C1378       C  0.94847230  0.35553335  0.82096177     0.16800
C1379       C  0.95915634  0.37308284  0.83737264     0.26200
C1380       C  0.97946454  0.38813601  0.83109026    -0.40100
C1381       C  0.98876615  0.38513998  0.80805841     0.33200
C1382       C  0.97801051  0.36771301  0.79164395     0.14900
F1383       F  0.92898555  0.34114595  0.82757747    -0.12400
F1384       F  0.00840742  0.39896992  0.80139322    -0.12900
F1385       F  0.94965796  0.37516700  0.85952832    -0.15200
F1386       F  0.98758244  0.36510731  0.77009142    -0.13800
F1387       F  0.94882385  0.35014594  0.73865964    -0.13800
F1388       F  0.92967976  0.28092216  0.79582728    -0.15200
C1389       C  0.99984537  0.48151593  0.99028512     0.14900
C1390       C  0.01119533  0.50268883  0.98790940     0.01800
C1391       C  0.02341852  0.51200515  0.96405970     0.16800
C1392       C  0.02407217  0.50035142  0.94268872     0.26200
C1393       C  0.01219416  0.47910210  0.94453650    -0.40100
C1394       C  0.00026338  0.46979792  0.96871671     0.33300
C1395       C  0.00925809  0.51849616  0.51090671     0.01900
F1396       F  0.03426053  0.53240552  0.96102724    -0.12400
F1397       F  0.98934559  0.44940503  0.97179195    -0.13000
C1398       C  0.02668261  0.53373122  0.52522702     0.16800
C1399       C  0.02522700  0.54518477  0.54638279     0.26200
C1400       C  0.00625183  0.54144983  0.55383917    -0.40100
C1401       C  0.98891258  0.52648384  0.53888400     0.33200
C1402       C  0.99043802  0.51519938  0.51767107     0.14900
F1403       F  0.04505854  0.53713360  0.51926609    -0.12400
F1404       F  0.97038187  0.52278031  0.54460213    -0.12900
F1405       F  0.04232393  0.55948681  0.56010739    -0.15200
F1406       F  0.97398854  0.49740905  0.00282087    -0.13800
F1407       F  0.98922295  0.47574259  0.51520067    -0.13800
F1408       F  0.03592258  0.50991699  0.91979919    -0.15200
C1409       C  0.01057492  0.51184132  0.71181238     0.14900
C1410       C  0.99834890  0.50655472  0.73591601     0.01800
C1411       C  0.98367658  0.51135481  0.73658337     0.16800
C1412       C  0.98194702  0.52206279  0.71413155     0.26200
C1413       C  0.99503605  0.52839468  0.69074037    -0.40100
C1414       C  0.00905174  0.52272365  0.68959564     0.33300
C1415       C  0.00137332  0.49650240  0.76043639     0.01900
F1416       F  0.97154815  0.50639774  0.75949058    -0.12400
F1417       F  0.02143323  0.52776820  0.66695497    -0.13000
C1418       C  0.02059736  0.50538088  0.77323928     0.16800
C1419       C  0.02373706  0.49570139  0.79570711     0.26200
C1420       C  0.00767995  0.47697345  0.80600661    -0.40100
C1421       C  0.98835928  0.46824893  0.79342467     0.33200
C1422       C  0.98527449  0.47788764  0.77087763     0.14900
F1423       F  0.03631526  0.52367701  0.76427462    -0.12400
F1424       F  0.97245664  0.45008304  0.80246222    -0.12900
F1425       F  0.04237824  0.50493668  0.80784820    -0.15200
F1426       F  0.96662392  0.46874067  0.75875934    -0.13800
F1427       F  0.02408055  0.50644442  0.70977628    -0.13800
F1428       F  0.96805202  0.52696040  0.71591185    -0.15200
C1429       C  0.58914834  0.95259136  0.71638402     0.14900
C1430       C  0.59168272  0.93916697  0.70076642     0.01800
C1431       C  0.58597529  0.93600817  0.67195101     0.16800
C1432       C  0.57888992  0.94690768  0.65867566     0.26200
C1433       C  0.57752431  0.96124422  0.67400357    -0.40100
C1434       C  0.58208376  0.96342997  0.70321639     0.33300
C1435       C  0.60224000  0.93026970  0.71393531     0.01900
F1436       F  0.58783120  0.92278116  0.65647890    -0.12400
F1437       F  0.58019048  0.97650320  0.71903866    -0.13000
C1438       C  0.59506387  0.91872269  0.73900258     0.16800
C1439       C  0.60645756  0.91246196  0.75304386     0.26200
C1440       C  0.62529546  0.91765746  0.74224743    -0.40100
C1441       C  0.63203864  0.92867114  0.71657054     0.33200
C1442       C  0.62070359  0.93493858  0.70272930     0.14900
F1443       F  0.57713073  0.91377837  0.75012394    -0.12400
F1444       F  0.64990484  0.93383336  0.70492757    -0.12900
F1445       F  0.59932980  0.90191260  0.77764079    -0.15200
F1446       F  0.62831839  0.94648633  0.67898500    -0.13800
F1447       F  0.59467079  0.95615197  0.74411700    -0.13800
F1448       F  0.57445300  0.94422376  0.63055872    -0.15200
C1449       C  0.66179913  0.84038524  0.69874473     0.14900
C1450       C  0.67568133  0.85006284  0.67663740     0.01800
C1451       C  0.68846415  0.87125154  0.67626240     0.16800
C1452       C  0.68724100  0.88263069  0.69761516     0.26200
C1453       C  0.67310474  0.87296378  0.71959514    -0.40100
C1454       C  0.66044968  0.85169043  0.71998068     0.33300
C1455       C  0.67674913  0.83802117  0.65391981     0.01900
F1456       F  0.70183716  0.88093370  0.65484989    -0.12400
F1457       F  0.64694620  0.84171721  0.74117349    -0.18400
C1458       C  0.65971297  0.82534550  0.63687690     0.16800
C1459       C  0.66086562  0.81428808  0.61495893     0.26200
C1460       C  0.67915860  0.81593863  0.60959081    -0.40100
C1461       C  0.69604894  0.82827940  0.62714347     0.33200
C1462       C  0.69481675  0.83917081  0.64917294     0.14900
F1463       F  0.64212878  0.82414378  0.64097145    -0.12400
F1464       F  0.71369435  0.82956551  0.62326490    -0.12900
F1465       F  0.64433537  0.80260603  0.59833738    -0.15200
F1466       F  0.71120662  0.85069003  0.66611985    -0.13800
F1467       F  0.64975091  0.81991004  0.70000606    -0.13800
F1468       F  0.69955429  0.90308402  0.69637076    -0.15200
C1469       C  0.67336723  0.84103887  0.94872296     0.14900
C1470       C  0.68382281  0.84345754  0.92363693     0.01800
C1471       C  0.69703991  0.83687338  0.92268794     0.16800
C1472       C  0.69921920  0.82733214  0.94628190     0.26200
C1473       C  0.68824293  0.82431939  0.97121040    -0.40100
C1474       C  0.67555406  0.83161064  0.97230116     0.33300
C1475       C  0.68090856  0.85304446  0.89869342     0.01900
F1476       F  0.70740704  0.83920711  0.89865625    -0.12400
F1477       F  0.66698098  0.83203275  0.49742799    -0.13000
C1478       C  0.69617707  0.87274960  0.89070406     0.16800
C1479       C  0.69289762  0.88245072  0.86850279     0.26200
C1480       C  0.67414633  0.87265723  0.85402916    -0.40100
C1481       C  0.65901840  0.85270463  0.86169678     0.33200
C1482       C  0.66240031  0.84298223  0.88384812     0.14900
F1483       F  0.71404152  0.88283697  0.90507459    -0.12400
F1484       F  0.64113709  0.84247678  0.84740903    -0.12900
F1485       F  0.70788432  0.90171727  0.86182610    -0.15200
F1486       F  0.64762669  0.82370653  0.89085225    -0.13800
F1487       F  0.66107455  0.84794236  0.95038556    -0.13800
F1488       F  0.71143531  0.82036180  0.94433074    -0.15200
C1489       C  0.70269887  0.98292560  0.87048687     0.14900
C1490       C  0.72111513  0.99949996  0.86067079     0.01800
C1491       C  0.72927032  0.99793733  0.83532947     0.16800
C1492       C  0.71920500  0.97979602  0.82013874     0.26200
C1493       C  0.70063068  0.96306287  0.82993608    -0.40100
C1494       C  0.69250608  0.96492511  0.85530857     0.33300
C1495       C  0.73174823  0.01828990  0.87729356     0.01900
F1496       F  0.74711987  0.01390380  0.82557246    -0.12400
F1497       F  0.67470397  0.94929138  0.86574257    -0.13000
C1498       C  0.73968484  0.01857495  0.90413397     0.16800
C1499       C  0.74855207  0.03588768  0.92089688     0.26200
C1500       C  0.74938688  0.05314788  0.91118785    -0.40100
C1501       C  0.74161351  0.05286266  0.88401016     0.33200
C1502       C  0.73290345  0.03556236  0.86721975     0.14900
F1503       F  0.73856399  0.00191569  0.91424016    -0.12400
F1504       F  0.74234900  0.06927585  0.87364068    -0.12900
F1505       F  0.75568599  0.03547745  0.94699141    -0.15200
F1506       F  0.72497314  0.03542169  0.84150309    -0.13800
F1507       F  0.69446454  0.98426405  0.89477884    -0.13800
F1508       F  0.72763370  0.97868825  0.79591238    -0.15200
C1509       C  0.75993090  0.78271347  0.59850276     0.14900
C1510       C  0.75065137  0.76526260  0.61550510     0.01800
C1511       C  0.72952502  0.75242438  0.61576333     0.16800
C1512       C  0.71770118  0.75684857  0.59936205     0.26200
C1513       C  0.72676015  0.77436520  0.58220192    -0.40100
C1514       C  0.74808137  0.78732462  0.58202105     0.33300
C1515       C  0.76257072  0.75908591  0.63137312     0.01900
F1516       F  0.72030525  0.73525433  0.63161511    -0.12400
F1517       F  0.75746839  0.80444319  0.56609306    -0.13000
C1518       C  0.76694340  0.76355616  0.66032521     0.16800
C1519       C  0.77435038  0.75403113  0.67660712     0.26200
C1520       C  0.77696417  0.73957009  0.66414461    -0.40100
C1521       C  0.77367889  0.73612189  0.63476623     0.33200
C1522       C  0.76655213  0.74578343  0.61859252     0.14900
F1523       F  0.76282512  0.77614433  0.67311418    -0.12400
F1524       F  0.77658620  0.72270581  0.62182638    -0.12900
F1525       F  0.77744039  0.75777826  0.70482543    -0.15200
F1526       F  0.76220839  0.74110843  0.59073312    -0.13800
F1527       F  0.78041814  0.79511999  0.59769090    -0.13800
F1528       F  0.69729079  0.74369508  0.60014787    -0.15200
C1529       C  0.94912541  0.59655356  0.54504921     0.14900
C1530       C  0.93254173  0.59467630  0.55882517     0.01800
C1531       C  0.92783834  0.58666951  0.58650724     0.16800
C1532       C  0.93970710  0.58083522  0.60022444     0.26200
C1533       C  0.95682263  0.58348794  0.58675202    -0.40100
C1534       C  0.96125327  0.59126610  0.55891409     0.33300
C1535       C  0.92176552  0.60312485  0.54506024     0.01900
F1536       F  0.91195414  0.58481148  0.60038258    -0.12400
F1537       F  0.97747216  0.59388675  0.54500887    -0.13000
C1538       C  0.91188872  0.59579203  0.51876350     0.16800
C1539       C  0.91214729  0.61240408  0.99640236     0.26200
C1540       C  0.90814772  0.62423851  0.51400456    -0.40100
C1541       C  0.91703523  0.63084651  0.54110916     0.33200
C1542       C  0.92371712  0.62039165  0.55642093     0.14900
F1543       F  0.90958638  0.57896140  0.50749286    -0.12400
F1544       F  0.91988408  0.64787338  0.55257324    -0.12900
F1545       F  0.90229191  0.60551815  0.97122806    -0.15200
F1546       F  0.93332473  0.62792892  0.58161986    -0.13800
F1547       F  0.95414340  0.60439893  0.51845529    -0.13800
F1548       F  0.93497464  0.57343892  0.62706250    -0.15200
C1549       C  0.81814598  0.67549284  0.59917339     0.14900
C1550       C  0.83935324  0.68598718  0.60038108     0.01800
C1551       C  0.84974975  0.69871248  0.62345728     0.16800
C1552       C  0.83908216  0.70063011  0.64529780     0.26200
C1553       C  0.81775571  0.68981983  0.64444936    -0.40100
C1554       C  0.80743334  0.67739121  0.62096179     0.33300
C1555       C  0.85050343  0.68306931  0.57801365     0.01900
F1556       F  0.87023107  0.70887819  0.62519403    -0.12400
F1557       F  0.78699709  0.66742038  0.61871291    -0.13000
C1558       C  0.86425104  0.69916493  0.56037701     0.16800
C1559       C  0.87436757  0.69611629  0.53887376     0.26200
C1560       C  0.87076027  0.67685399  0.53452665    -0.40100
C1561       C  0.85720928  0.66085296  0.55257955     0.33200
C1562       C  0.84725486  0.66397543  0.57414077     0.14900
F1563       F  0.86743237  0.71769857  0.56347297    -0.12400
F1564       F  0.85375835  0.64218933  0.54965078    -0.12900
F1565       F  0.87734185  0.70770392  0.01539752    -0.15200
F1566       F  0.83453706  0.64835974  0.59150941    -0.13800
F1567       F  0.80783113  0.66356683  0.57663135    -0.13800
F1568       F  0.84964553  0.71270766  0.66760301    -0.15200
C1569       C  0.82050356  0.67116052  0.81675327     0.14900
C1570       C  0.83835985  0.68761946  0.82834517     0.01800
C1571       C  0.84560911  0.70719242  0.81810678     0.16800
C1572       C  0.83534957  0.71014193  0.79616789     0.26200
C1573       C  0.81769609  0.69352145  0.78405346    -0.40100
C1574       C  0.81025068  0.67404497  0.79501684     0.33300
C1575       C  0.84888849  0.68412575  0.85161383     0.01900
F1576       F  0.86287963  0.72339905  0.82891083    -0.12400
F1577       F  0.79278097  0.65764453  0.78500091    -0.13000
C1578       C  0.85554464  0.67111435  0.84772799     0.16800
C1579       C  0.86421370  0.66670558  0.87025385     0.26200
C1580       C  0.86660760  0.67541671  0.89703407    -0.40100
C1581       C  0.86006681  0.68858208  0.90076944     0.33200
C1582       C  0.85125804  0.69282419  0.87832276     0.14900
F1583       F  0.85397346  0.66296001  0.82189484    -0.12400
F1584       F  0.86192155  0.69717790  0.92633537    -0.12900
F1585       F  0.87094234  0.65452051  0.86555918    -0.15200
F1586       F  0.84459890  0.70509440  0.88285852    -0.13800
F1587       F  0.81274563  0.65219889  0.82688433    -0.13800
F1588       F  0.84294457  0.72915699  0.78641862    -0.15200
C1589       C  0.01468818  0.74639782  0.84608858     0.14900
C1590       C  0.01443816  0.74265723  0.87528739     0.01800
C1591       C  0.03239338  0.74779905  0.88914147     0.16800
C1592       C  0.05015936  0.75547036  0.87372725     0.26200
C1593       C  0.05026324  0.75826496  0.84418571    -0.40100
C1594       C  0.03254256  0.75430418  0.83062440     0.33300
C1595       C  0.99510162  0.73104035  0.89061231     0.01900
F1596       F  0.03242011  0.74427853  0.91734922    -0.12400
F1597       F  0.03215059  0.75683165  0.80219434    -0.13000
C1598       C  0.98176978  0.71044501  0.88477755     0.16800
C1599       C  0.96382324  0.69883153  0.89991075     0.26200
C1600       C  0.95880662  0.70764928  0.92128269    -0.40100
C1601       C  0.97237300  0.72835279  0.92725436     0.33200
C1602       C  0.99043482  0.73991806  0.91208386     0.14900
F1603       F  0.98647377  0.70143412  0.86487941    -0.12400
F1604       F  0.96822828  0.73744311  0.94772868    -0.12900
F1605       F  0.95156105  0.67885971  0.89379123    -0.15200
F1606       F  0.00338696  0.75977565  0.91832562    -0.13800
F1607       F  0.99743213  0.74164593  0.83243517    -0.13800
F1608       F  0.06717168  0.75972257  0.88763609    -0.15200
C1609       C  0.59997872  0.65605415  0.96756586     0.14900
C1610       C  0.60609861  0.67442134  0.95414293     0.01800
C1611       C  0.60266767  0.67455122  0.92480626     0.16800
C1612       C  0.59466249  0.65689598  0.90884767     0.26200
C1613       C  0.58996494  0.63887836  0.92204789    -0.40100
C1614       C  0.59200399  0.63845392  0.95165326     0.33300
C1615       C  0.61875629  0.69367407  0.96977235     0.01900
F1616       F  0.60809790  0.69204873  0.91140184    -0.12400
F1617       F  0.58694346  0.62107646  0.96509364    -0.13000
C1618       C  0.63844208  0.70780445  0.96025360     0.16800
C1619       C  0.65119838  0.72555768  0.97522803     0.26200
C1620       C  0.64469890  0.72963909  0.00045568    -0.40100
C1621       C  0.62498194  0.71533923  0.01024669     0.33200
C1622       C  0.61211305  0.69751781  0.99497212     0.14900
F1623       F  0.64563577  0.70410994  0.93674126    -0.12400
F1624       F  0.61950416  0.71710529  0.53503048    -0.12900
F1625       F  0.67004841  0.73868335  0.96486617    -0.15200
F1626       F  0.59316073  0.68404653  0.00473232    -0.13800
F1627       F  0.60312382  0.65541966  0.99577583    -0.13800
F1628       F  0.59302837  0.65780892  0.88029230    -0.15200
C1629       C  0.66177386  0.61184810  0.81183511     0.14900
C1630       C  0.66838694  0.62935697  0.79563301     0.01800
C1631       C  0.65667767  0.63767757  0.79510896     0.16800
C1632       C  0.63891587  0.62897163  0.81093155     0.26200
C1633       C  0.63242907  0.61169525  0.82783805    -0.40100
C1634       C  0.64400320  0.60312952  0.82790998     0.33300
C1635       C  0.68818407  0.63995216  0.78089832     0.01900
F1636       F  0.66257379  0.65442743  0.77931969    -0.12400
F1637       F  0.63812307  0.58628382  0.84341669    -0.13000
C1638       C  0.69188160  0.63094029  0.75838733     0.16800
C1639       C  0.71051027  0.64157217  0.74414287     0.26200
C1640       C  0.72577488  0.66144184  0.75222199    -0.40100
C1641       C  0.72198054  0.67018210  0.77516798     0.33200
C1642       C  0.70344137  0.65958115  0.78919998     0.14900
F1643       F  0.67727425  0.61203127  0.74978006    -0.12400
F1644       F  0.73624348  0.68905459  0.78434145    -0.12900
F1645       F  0.71348090  0.63244925  0.72236463    -0.15200
F1646       F  0.70041485  0.66849540  0.81123145    -0.13800
F1647       F  0.67284804  0.60353496  0.81273108    -0.13800
F1648       F  0.62834191  0.63782803  0.81010989    -0.15200
C1649       C  0.48779462  0.50346874  0.52256408     0.14900
C1650       C  0.50761140  0.50789273  0.52173570     0.01800
C1651       C  0.51393841  0.49992643  0.54281187     0.16800
C1652       C  0.50066943  0.48766541  0.56426604     0.26200
C1653       C  0.48076031  0.48317285  0.56514405    -0.40100
C1654       C  0.47454080  0.49134254  0.54410880     0.33300
C1655       C  0.51810183  0.51795669  0.98798928     0.01900
F1656       F  0.53311535  0.50431700  0.54295366    -0.12400
F1657       F  0.45551093  0.48732476  0.54396508    -0.13000
C1658       C  0.51955566  0.53622774  0.98349943     0.16800
C1659       C  0.53184988  0.54948240  0.96210247     0.26200
C1660       C  0.54333739  0.54498813  0.94501855    -0.40100
C1661       C  0.54236168  0.52696556  0.94994220     0.33200
C1662       C  0.52967877  0.51345074  0.97109332     0.14900
F1663       F  0.50926093  0.54142184  0.00018701    -0.12400
F1664       F  0.55301073  0.52203957  0.93357370    -0.12900
F1665       F  0.53270289  0.56692534  0.95835877    -0.15200
F1666       F  0.52827013  0.49571201  0.97454367    -0.13800
F1667       F  0.47597171  0.50251810  0.99082677    -0.13800
F1668       F  0.50746728  0.48033416  0.58426775    -0.15200
C1669       C  0.52853716  0.52153634  0.77395595     0.14900
C1670       C  0.50887647  0.51702816  0.77001626     0.01800
C1671       C  0.50233638  0.52708299  0.78648161     0.16800
C1672       C  0.51536581  0.54152136  0.80646522     0.26200
C1673       C  0.53499678  0.54586015  0.81050471    -0.40100
C1674       C  0.54143000  0.53573193  0.79403409     0.33300
C1675       C  0.49593438  0.50298772  0.74721348     0.01900
F1676       F  0.48327392  0.52276628  0.78336444    -0.12400
F1677       F  0.56049450  0.53999193  0.79678980    -0.13000
C1678       C  0.49159789  0.48325720  0.74602420     0.16800
C1679       C  0.48088995  0.47074428  0.72295940     0.26200
C1680       C  0.47426147  0.47775301  0.70075588    -0.40100
C1681       C  0.47848671  0.49748016  0.70228931     0.33200
C1682       C  0.48917836  0.50990125  0.72524369     0.14900
F1683       F  0.49773980  0.47611443  0.76724044    -0.12400
F1684       F  0.47277898  0.50510098  0.68117993    -0.12900
F1685       F  0.47693914  0.45178727  0.72250453    -0.15200
F1686       F  0.49363616  0.52905810  0.72544157    -0.13800
F1687       F  0.53552842  0.51265942  0.75764757    -0.13800
F1688       F  0.50861995  0.55082775  0.82231405    -0.15200
C1689       C  0.42744238  0.08808657  0.83095432     0.14900
C1690       C  0.41818900  0.08122969  0.80423838     0.01800
C1691       C  0.41595545  0.06388019  0.79275602     0.16800
C1692       C  0.42192046  0.05293300  0.80823489     0.26200
C1693       C  0.43036448  0.05916524  0.83558844    -0.40100
C1694       C  0.43370090  0.07724751  0.84643736     0.33300
C1695       C  0.40857022  0.09045042  0.78959107     0.01900
F1696       F  0.40696330  0.05690562  0.76706164    -0.12400
F1697       F  0.44214896  0.08394714  0.87246599    -0.13000
C1698       C  0.41510988  0.09936054  0.76267858     0.16800
C1699       C  0.40387228  0.10506918  0.74702953     0.26200
C1700       C  0.38568854  0.10157721  0.75789868    -0.40100
C1701       C  0.37970856  0.09340326  0.78543130     0.33200
C1702       C  0.39106891  0.08795716  0.80107801     0.14900
F1703       F  0.43206676  0.10196712  0.75125334    -0.12400
F1704       F  0.36261667  0.09029638  0.79716494    -0.12900
F1705       F  0.41032336  0.11315385  0.72079993    -0.15200
F1706       F  0.38434556  0.07917025  0.82691472    -0.13800
F1707       F  0.42991220  0.10497333  0.84229457    -0.13800
F1708       F  0.41912610  0.03600454  0.79649135    -0.15200
C1709       C  0.26925105  0.99990364  0.58687984     0.14900
C1710       C  0.27455254  0.00189999  0.61575980     0.01800
C1711       C  0.27072628  0.98489502  0.63105282     0.16800
C1712       C  0.26215410  0.96630192  0.61769273     0.26200
C1713       C  0.25741811  0.96433777  0.58857319    -0.40100
C1714       C  0.26060442  0.98120669  0.57340284     0.33300
C1715       C  0.28501379  0.02173846  0.63002805     0.01900
F1716       F  0.27615635  0.98649758  0.65877748    -0.12400
F1717       F  0.25619959  0.97985576  0.54530883    -0.13000
C1718       C  0.27701254  0.02416582  0.65493203     0.16800
C1719       C  0.28824986  0.04182264  0.67092390     0.26200
C1720       C  0.30769195  0.05749490  0.66212927    -0.40100
C1721       C  0.31521740  0.05538044  0.63630870     0.33200
C1722       C  0.30401088  0.03765057  0.62051777     0.14900
F1723       F  0.25840055  0.00917293  0.66405578    -0.12400
F1724       F  0.33359922  0.07032702  0.62639573    -0.12900
F1725       F  0.28027286  0.04327184  0.69537416    -0.15200
F1726       F  0.31215822  0.03568609  0.59658528    -0.13800
F1727       F  0.27274040  0.01611491  0.57165299    -0.13800
F1728       F  0.25882540  0.95027788  0.63328027    -0.15200
C1729       C  0.35426382  0.16247310  0.59292739     0.14900
C1730       C  0.34461427  0.17278506  0.59677335     0.01800
C1731       C  0.33639098  0.17201800  0.62335433     0.16800
C1732       C  0.33756512  0.16095524  0.64559488     0.26200
C1733       C  0.34725969  0.15068234  0.64181002    -0.40100
C1734       C  0.35561113  0.15153521  0.61528815     0.33300
C1735       C  0.34317498  0.18439561  0.57314519     0.01900
F1736       F  0.32746985  0.18225260  0.62790969    -0.12400
F1737       F  0.36424640  0.14104105  0.61063702    -0.13000
C1738       C  0.32423665  0.17996147  0.56372768     0.16800
C1739       C  0.32293017  0.19102734  0.54150051     0.26200
C1740       C  0.34057634  0.20669702  0.52813537    -0.40100
C1741       C  0.35954431  0.21111918  0.53779080     0.33200
C1742       C  0.36078869  0.20009450  0.56003261     0.14900
F1743       F  0.30694443  0.16458444  0.57568601    -0.12400
F1744       F  0.37703273  0.22630660  0.52599049    -0.12900
F1745       F  0.30436034  0.18612252  0.53279741    -0.15200
F1746       F  0.37929712  0.20500160  0.56911774    -0.13800
F1747       F  0.36188965  0.16254410  0.56726078    -0.13800
F1748       F  0.32943082  0.16050958  0.67100945    -0.15200
C1749       C  0.35438346  0.20505272  0.84310101     0.14900
C1750       C  0.34274487  0.18383341  0.84501603     0.01800
C1751       C  0.33159852  0.17450933  0.86969723     0.16800
C1752       C  0.33171824  0.18610695  0.89185648     0.26200
C1753       C  0.34320884  0.20736170  0.88997591    -0.40100
C1754       C  0.35473922  0.21673796  0.86546827     0.33300
C1755       C  0.34251839  0.17137575  0.82161006     0.01900
F1756       F  0.32083081  0.15410253  0.87257330    -0.12400
F1757       F  0.36586009  0.23715692  0.86272943    -0.13000
C1758       C  0.36068398  0.17417199  0.81236539     0.16800
C1759       C  0.36059289  0.16232126  0.79061482     0.26200
C1760       C  0.34225736  0.14721681  0.77777482    -0.40100
C1761       C  0.32401378  0.14427602  0.78722767     0.33200
C1762       C  0.32416676  0.15633520  0.80886233     0.14900
F1763       F  0.37854403  0.18810307  0.82490531    -0.12400
F1764       F  0.30608333  0.13009115  0.77511982    -0.12900
F1765       F  0.37851067  0.16539483  0.78258096    -0.15200
F1766       F  0.30641183  0.15356923  0.81705277    -0.13800
F1767       F  0.36503626  0.21444219  0.81925936    -0.13800
F1768       F  0.32074195  0.17645178  0.91537030    -0.15200
C1769       C  0.40537387  0.33553926  0.49872083     0.14900
C1770       C  0.40254217  0.33639992  0.52790520     0.01800
C1771       C  0.38862126  0.31861962  0.54253442     0.16800
C1772       C  0.37026502  0.31148570  0.00347384     0.26200
C1773       C  0.37958225  0.29941951  0.49878088    -0.40100
C1774       C  0.39406678  0.31712710  0.48425584     0.33300
C1775       C  0.41222461  0.35593077  0.54278978     0.01900
F1776       F  0.38533708  0.31916021  0.57060153    -0.12400
F1777       F  0.39655764  0.31682456  0.45589136    -0.13000
C1778       C  0.40671963  0.36943805  0.53551096     0.16800
C1779       C  0.41300361  0.38635010  0.55221199     0.26200
C1780       C  0.42502210  0.39015350  0.57666491    -0.40100
C1781       C  0.43141662  0.37711600  0.58304351     0.33200
C1782       C  0.42493016  0.36006275  0.56632503     0.14900
F1783       F  0.39425226  0.36562508  0.51305527    -0.12400
F1784       F  0.44351419  0.38052862  0.60579263    -0.12900
F1785       F  0.40672755  0.39862529  0.54473657    -0.15200
F1786       F  0.43062656  0.34727252  0.57348037    -0.13800
F1787       F  0.41872835  0.35261460  0.48417700    -0.13800
F1788       F  0.35268816  0.30722321  0.99139794    -0.15200
C1789       C  0.09379719  0.41480307  0.99209581     0.14900
C1790       C  0.08618507  0.40901362  0.96438691     0.01800
C1791       C  0.08676328  0.39358647  0.95125018     0.16800
C1792       C  0.09408995  0.38348041  0.96591236     0.26200
C1793       C  0.10856843  0.39809833  0.49413624    -0.40100
C1794       C  0.10253749  0.40913807  0.50912700     0.33300
C1795       C  0.07519076  0.41699591  0.95033705     0.01900
F1796       F  0.07934194  0.38769913  0.92455285    -0.12400
F1797       F  0.10250206  0.40898536  0.53788979    -0.13000
C1798       C  0.08493347  0.43343468  0.93148154     0.16800
C1799       C  0.07378888  0.43962501  0.91655122     0.26200
C1800       C  0.05269237  0.42942720  0.92033806    -0.40100
C1801       C  0.04312444  0.41298073  0.93951478     0.33200
C1802       C  0.05426885  0.40686635  0.95421049     0.14900
F1803       F  0.10516361  0.44324893  0.92720881    -0.12400
F1804       F  0.02281944  0.40236812  0.94370894    -0.12900
F1805       F  0.08363091  0.45546074  0.89830870    -0.15200
F1806       F  0.04450852  0.39061508  0.97181175    -0.13800
F1807       F  0.08820626  0.42875440  0.50965339    -0.13800
F1808       F  0.09404569  0.36837486  0.95254724    -0.15200
C1809       C  0.98747046  0.27898080  0.61999159     0.14900
C1810       C  0.00483754  0.28064814  0.63106065     0.01800
C1811       C  0.00396775  0.27269631  0.65822823     0.16800
C1812       C  0.98616526  0.26375218  0.67430534     0.26200
C1813       C  0.96894142  0.26266419  0.66347625    -0.40100
C1814       C  0.96974297  0.27001780  0.63585287     0.33300
C1815       C  0.02404927  0.29191355  0.61481916     0.01900
F1816       F  0.02043497  0.27378312  0.66929341    -0.12400
F1817       F  0.95337334  0.26877156  0.62408670    -0.13000
C1818       C  0.04113320  0.30922894  0.62647763     0.16800
C1819       C  0.05865455  0.32108924  0.61040322     0.26200
C1820       C  0.05956196  0.31589386  0.58218932    -0.40100
C1821       C  0.04251917  0.29837156  0.57063226     0.33200
C1822       C  0.02494761  0.28651121  0.58679991     0.14900
F1823       F  0.04063090  0.31512021  0.65320751    -0.12400
F1824       F  0.04262046  0.29296759  0.54346146    -0.12900
F1825       F  0.07476056  0.33770965  0.62263039    -0.15200
F1826       F  0.00870615  0.26977748  0.57501379    -0.13800
F1827       F  0.98789990  0.28685053  0.59413387    -0.13800
F1828       F  0.98604183  0.25678875  0.70073515    -0.15200
C1829       C  0.32377180  0.39779136  0.74112122     0.14900
C1830       C  0.32651592  0.39042636  0.71584799     0.01800
C1831       C  0.31115010  0.37131363  0.70606111     0.16800
C1832       C  0.29338086  0.35946269  0.72156755     0.26200
C1833       C  0.29058038  0.36658065  0.74724369    -0.40100
C1834       C  0.30588599  0.38605024  0.75662208     0.33300
C1835       C  0.34616222  0.40152605  0.70115478     0.01900
F1836       F  0.31369957  0.36381624  0.68190477    -0.12400
F1837       F  0.30377728  0.39361618  0.78103194    -0.13000
C1838       C  0.36248813  0.40159850  0.71296019     0.16800
C1839       C  0.38049426  0.40985579  0.69798608     0.26200
C1840       C  0.38261793  0.41839959  0.67085188    -0.40100
C1841       C  0.36643623  0.41899190  0.65945605     0.33200
C1842       C  0.34824816  0.41042661  0.67444824     0.14900
F1843       F  0.36069866  0.39294972  0.73867091    -0.12400
F1844       F  0.36792132  0.42716791  0.63347541    -0.12900
F1845       F  0.39584675  0.40938565  0.71014413    -0.15200
F1846       F  0.33255468  0.41050994  0.66277502    -0.13800
F1847       F  0.33856306  0.41625235  0.75094816    -0.13800
F1848       F  0.27899496  0.34095560  0.71137615    -0.15200
C1849       C  0.28732513  0.26307052  0.87284805     0.14900
C1850       C  0.27058831  0.26101418  0.88636120     0.01800
C1851       C  0.26598229  0.25334072  0.91419490     0.16800
C1852       C  0.27813653  0.24807272  0.92839847     0.26200
C1853       C  0.29527719  0.25063737  0.91508607    -0.40100
C1854       C  0.29953282  0.25798569  0.88696680     0.33300
C1855       C  0.25966424  0.26916865  0.87227409     0.01900
F1856       F  0.24996890  0.25137840  0.92782162    -0.12400
F1857       F  0.31579593  0.26066928  0.87310919    -0.13000
C1858       C  0.24935641  0.26123402  0.84639814     0.16800
C1859       C  0.24226143  0.27130086  0.83071320     0.26200
C1860       C  0.24575678  0.28971662  0.84043236    -0.40100
C1861       C  0.25505811  0.29689597  0.86721389     0.33200
C1862       C  0.26184318  0.28669902  0.88291725     0.14900
F1863       F  0.24674525  0.24406405  0.83593464    -0.12400
F1864       F  0.25815650  0.31418693  0.87804998    -0.12900
F1865       F  0.23285840  0.26351054  0.80548947    -0.15200
F1866       F  0.27171255  0.29468852  0.90783141    -0.13800
F1867       F  0.29249309  0.27104521  0.84633235    -0.13800
F1868       F  0.27359194  0.24127460  0.95552700    -0.15200
C1869       C  0.16852102  0.36096421  0.65258881     0.14900
C1870       C  0.17250104  0.34572073  0.65129332     0.01800
C1871       C  0.16716910  0.33404718  0.62660998     0.16800
C1872       C  0.15728224  0.33688204  0.60423620     0.26200
C1873       C  0.15293793  0.35185715  0.60565126    -0.40100
C1874       C  0.15900701  0.36413542  0.62986124     0.33300
C1875       C  0.18217975  0.34191942  0.67553128     0.01900
F1876       F  0.17175991  0.31998320  0.62398449    -0.12400
F1877       F  0.15500440  0.37864805  0.63207397    -0.13000
C1878       C  0.17322665  0.32238574  0.68719192     0.16800
C1879       C  0.18258872  0.31877231  0.70966411     0.26200
C1880       C  0.20088712  0.33470612  0.72130190    -0.40100
C1881       C  0.20972914  0.35426371  0.70966272     0.33200
C1882       C  0.20060290  0.35775090  0.68689194     0.14900
F1883       F  0.15517492  0.30683441  0.67715223    -0.12400
F1884       F  0.22754893  0.37008638  0.71988328    -0.12900
F1885       F  0.17347345  0.29980242  0.72045687    -0.15200
F1886       F  0.21009424  0.37658435  0.67546344    -0.13800
F1887       F  0.17326404  0.37238454  0.67623862    -0.13800
F1888       F  0.15207797  0.32497237  0.58102049    -0.15200
C1889       C  0.14942555  0.33036310  0.92695967     0.14900
C1890       C  0.17065153  0.34185647  0.92813035     0.01800
C1891       C  0.18068651  0.35440550  0.95145036     0.16800
C1892       C  0.16960943  0.35548389  0.97341024     0.26200
C1893       C  0.14827901  0.34401594  0.97230109    -0.40100
C1894       C  0.13829884  0.33140688  0.94887530     0.33300
C1895       C  0.18227579  0.34037499  0.90523328     0.01900
F1896       F  0.20120771  0.36530150  0.95316099    -0.12400
F1897       F  0.11780355  0.32050199  0.94679093    -0.13000
C1898       C  0.19401791  0.35673805  0.88680146     0.16800
C1899       C  0.20457267  0.35502546  0.86463538     0.26200
C1900       C  0.20344175  0.33689577  0.86065311    -0.40100
C1901       C  0.19183897  0.32062067  0.87936592     0.33200
C1902       C  0.18138159  0.32238670  0.90153218     0.14900
F1903       F  0.19481060  0.37415494  0.88986859    -0.12400
F1904       F  0.19093408  0.30312411  0.87652050    -0.12900
F1905       F  0.21523119  0.37076621  0.84643265    -0.15200
F1906       F  0.17050711  0.30660861  0.91961239    -0.13800
F1907       F  0.13951248  0.31836402  0.90430922    -0.13800
F1908       F  0.18042826  0.36886815  0.49271145    -0.15200
loop_ 
_geom_bond_atom_site_label_1 
_geom_bond_atom_site_label_2 
_geom_bond_distance 
_geom_bond_site_symmetry_2 
_ccdc_geom_bond_type 
O1            C4   1.272       .  A
O1           Cd6   2.474       .  S
C2           O11   1.266       .  A
C2            O7   1.272       .  A
C2          C879   1.485       .  S
O3            C9   1.273       .  A
O3           Cd6   2.507       .  S
C4           O12   1.267       .  A
C4          C946   1.482       .  S
C5           O10   1.274       .  A
C5            O8   1.265       .  A
C5          C926   1.486       .  S
Cd6          O13   2.413       .  S
Cd6          O12   2.437       .  S
Cd6          O11   2.422       .  S
Cd6           O7   2.494       .  S
Cd6          O10   2.501       .  S
Cd6           O8   2.411       .  S
C9           O13   1.266       .  A
C9          C906   1.483       .  S
O14          C17   1.272   1_554  A
O14         Cd19   2.457       .  S
C15          O24   1.265       .  A
C15          O20   1.271       .  A
C15         C866   1.484       .  S
O16          C22   1.274       .  A
O16         Cd19   2.490       .  S
C17          O25   1.268   1_556  A
C17        C1893   1.478       .  S
C18          O23   1.273       .  A
C18          O21   1.265       .  A
C18         C839   1.487   1_554  S
Cd19         O26   2.405       .  S
Cd19         O25   2.423       .  S
Cd19         O24   2.424       .  S
Cd19         O20   2.489       .  S
Cd19         O23   2.512       .  S
Cd19         O21   2.421       .  S
C22          O26   1.265       .  A
C22         C919   1.479       .  S
O27          C30   1.271       .  A
O27         Cd32   2.478       .  S
C28          O37   1.266       .  A
C28          O33   1.271       .  A
C28        C1773   1.479       .  S
O29          C35   1.272       .  A
O29         Cd32   2.511       .  S
C30          O38   1.265       .  A
C30         C799   1.477       .  S
C31         O990   1.273   1_554  A
C31         O988   1.264   1_554  A
C31         C786   1.490       .  S
Cd32         O39   2.403       .  S
Cd32         O38   2.422       .  S
Cd32         O37   2.412       .  S
Cd32         O33   2.487       .  S
Cd32         O36   2.485       .  S
Cd32         O34   2.419       .  S
O34         C985   1.266       .  A
C35          O39   1.264       .  A
C35         C899   1.488       .  S
O36         C985   1.273       .  A
O40          C43   1.272       .  A
O40         Cd45   2.457       .  S
C41          O50   1.264       .  A
C41          O46   1.270       .  A
C41         C766   1.483       .  S
O42          C48   1.272       .  A
O42         Cd45   2.490       .  S
C43          O51   1.267       .  A
C43         C806   1.482       .  S
C44          O49   1.272       .  A
C44          O47   1.265       .  A
C44         C746   1.486       .  S
Cd45         O52   2.423       .  S
Cd45         O51   2.420       .  S
Cd45         O50   2.404       .  S
Cd45         O46   2.505       .  S
Cd45         O49   2.513       .  S
Cd45         O47   2.417       .  S
C48          O52   1.264       .  A
C48         C779   1.479       .  S
O53          C56   1.271       .  A
O53         Cd58   2.498       .  S
C54          O63   1.265       .  A
C54          O59   1.272       .  A
C54         C706   1.472       .  S
O55          C61   1.272       .  A
O55         Cd58   2.492       .  S
C56          O64   1.265       .  A
C56         C679   1.486       .  S
C57          O62   1.271       .  A
C57          O60   1.265       .  A
C57         C719   1.478       .  S
Cd58         O65   2.401       .  S
Cd58         O64   2.404       .  S
Cd58         O63   2.390       .  S
Cd58         O59   2.485       .  S
Cd58         O62   2.483       .  S
Cd58         O60   2.397       .  S
C61          O65   1.266       .  A
C61         C659   1.479       .  S
O66          C69   1.274       .  A
O66         Cd71   2.480       .  S
C67          O76   1.266       .  A
C67          O72   1.274       .  A
C67         C886   1.489       .  S
O68          C74   1.271       .  A
O68         Cd71   2.495       .  S
C69          O77   1.265       .  A
C69         C699   1.485       .  S
C70          O75   1.273       .  A
C70          O73   1.266       .  A
C70         C726   1.477       .  S
Cd71         O78   2.395       .  S
Cd71         O77   2.410       .  S
Cd71         O76   2.399       .  S
Cd71         O72   2.505       .  S
Cd71         O75   2.463       .  S
Cd71         O73   2.409       .  S
C74          O78   1.265       .  A
C74         C826   1.468       .  S
O79          C82   1.270       .  A
O79         Cd84   2.486       .  S
C80        O1043   1.268   1_554  A
C80        O1039   1.271       .  A
C80         C606   1.470       .  S
O81          C87   1.273       .  A
O81         Cd84   2.526       .  S
C82          O90   1.265       .  A
C82         C646   1.488       .  S
C83          O88   1.274       .  A
C83          O86   1.265       .  A
C83        C1540   1.490       .  S
Cd84         O91   2.432       .  S
Cd84         O90   2.436       .  S
Cd84         O89   2.432       .  S
Cd84         O85   2.469       .  S
Cd84         O88   2.522       .  S
Cd84         O86   2.412       .  S
O85        C1034   1.272       .  A
C87          O91   1.264       .  A
C87         C626   1.487       .  S
O89        C1034   1.268       .  A
O92          C95   1.273       .  A
O92         Cd97   2.474       .  S
C93         O102   1.267       .  A
C93          O98   1.273       .  A
C93         C686   1.483       .  S
O94         C100   1.275       .  A
O94         Cd97   2.510       .  S
C95         O103   1.267       .  A
C95         C599   1.485       .  S
C96         O101   1.275       .  A
C96          O99   1.266       .  A
C96         C566   1.488       .  S
Cd97        O104   2.416       .  S
Cd97        O103   2.406       .  S
Cd97        O102   2.391       .  S
Cd97         O98   2.472       .  S
Cd97        O101   2.502       .  S
Cd97         O99   2.408       .  S
C100        O104   1.266       .  A
C100        C619   1.493       .  S
O105        C108   1.272       .  A
O105       Cd110   2.472       .  S
C106        O115   1.267       .  A
C106        O111   1.272       .  A
C106        C539   1.483       .  S
O107        C113   1.274       .  A
O107       Cd110   2.508       .  S
C108        O116   1.266       .  A
C108        C499   1.476       .  S
C109        O114   1.276       .  A
C109        O112   1.266       .  A
C109        C526   1.486       .  S
Cd110       O117   2.386       .  S
Cd110       O116   2.401       .  S
Cd110       O115   2.421       .  S
Cd110       O111   2.460       .  S
Cd110       O114   2.487       .  S
Cd110       O112   2.391       .  S
C113        O117   1.264       .  A
C113        C486   1.486       .  S
O118        C121   1.271       .  A
O118       Cd123   2.505       .  S
C119        O128   1.266       .  A
C119        O124   1.272       .  A
C119        C506   1.483       .  S
O120        C126   1.272       .  A
O120       Cd123   2.504       .  S
C121        O129   1.264       .  A
C121       C1620   1.487       .  S
C122        O127   1.272       .  A
C122        O125   1.264   1_556  A
C122       C1473   1.483       .  S
Cd123       O130   2.403       .  S
Cd123       O129   2.406       .  S
Cd123       O128   2.425       .  S
Cd123       O124   2.462       .  S
Cd123       O127   2.490   1_554  S
Cd123       O125   2.416       .  S
C126        O130   1.265       .  A
C126        C559   1.482       .  S
O131        C134   1.272   1_655  A
O131       Cd136   2.498   1_655  S
C132        O141   1.266   1_655  A
C132        O137   1.273       .  A
C132        C426   1.489       .  S
O133        C139   1.273       .  A
O133       Cd136   2.487       .  S
C134        O142   1.265       .  A
C134        C439   1.488       .  S
C135        O140   1.272       .  A
C135        O138   1.265       .  A
C135        C846   1.490       .  S
Cd136       O143   2.414       .  S
Cd136       O142   2.438       .  S
Cd136       O141   2.426       .  S
Cd136       O137   2.508   1_455  S
Cd136       O140   2.508       .  S
Cd136       O138   2.411       .  S
C139        O143   1.266       .  A
C139        C466   1.483       .  S
O144        C147   1.272       .  A
O144       Cd149   2.449       .  S
C145        O154   1.266       .  A
C145        O150   1.272       .  A
C145        C399   1.480       .  S
O146        C152   1.274       .  A
O146       Cd149   2.515   1_655  S
C147        O155   1.268   1_455  A
C147        C446   1.475       .  S
C148        O153   1.275   1_455  A
C148        O151   1.265       .  A
C148        C459   1.489       .  S
Cd149       O156   2.438   1_455  S
Cd149       O155   2.409   1_455  S
Cd149       O154   2.392       .  S
Cd149       O150   2.479       .  S
Cd149       O153   2.500   1_455  S
Cd149       O151   2.426       .  S
C152        O156   1.266       .  A
C152        C579   1.492       .  S
O157        C160   1.274       .  A
O157       Cd162   2.510       .  S
C158        O167   1.265       .  A
C158        O163   1.274       .  A
C158        C359   1.490       .  S
O159        C165   1.274       .  A
O159       Cd162   2.520       .  S
C160        O168   1.267       .  A
C160        C419   1.493       .  S
C161        O166   1.274       .  A
C161        O164   1.266       .  A
C161        C379   1.481       .  S
Cd162       O169   2.402       .  S
Cd162       O168   2.434       .  S
Cd162       O167   2.419       .  S
Cd162       O163   2.495       .  S
Cd162       O166   2.495       .  S
Cd162       O164   2.404       .  S
C165        O169   1.265       .  A
C165        C859   1.492       .  S
O170        C173   1.276       .  A
O170       Cd175   2.504       .  S
C171        O180   1.264       .  A
C171        O176   1.274       .  A
C171       C1293   1.491       .  S
O172        C178   1.271       .  A
O172       Cd175   2.464       .  S
C173        O181   1.265       .  A
C173        C386   1.485       .  S
C174       O1133   1.273       .  A
C174       O1131   1.267   1_554  A
C174        C366   1.472       .  S
Cd175       O182   2.422       .  S
Cd175       O181   2.392       .  S
Cd175       O180   2.412       .  S
Cd175       O176   2.511       .  S
Cd175       O179   2.454       .  S
Cd175       O177   2.405       .  S
O177       C1128   1.268       .  A
C178        O182   1.266       .  A
C178        C546   1.481       .  S
O179       C1128   1.272       .  A
O183        C186   1.271       .  A
O183       Cd188   2.482   1_565  S
C184        O193   1.267       .  A
C184        O189   1.272   1_545  A
C184        C326   1.478       .  S
O185        C191   1.272       .  A
O185       Cd188   2.494       .  S
C186        O194   1.264   1_565  A
C186        C286   1.475       .  S
C187        O192   1.272       .  A
C187        O190   1.265       .  A
C187        C306   1.474       .  S
Cd188       O195   2.416       .  S
Cd188       O194   2.406       .  S
Cd188       O193   2.417       .  S
Cd188       O189   2.469   1_545  S
Cd188       O192   2.481       .  S
Cd188       O190   2.402       .  S
C191        O195   1.265       .  A
C191        C739   1.484       .  S
O196        C199   1.273       .  A
O196       Cd201   2.495       .  S
C197        O206   1.267   1_545  A
C197        O202   1.273       .  A
C197        C319   1.482       .  S
O198        C204   1.274   1_565  A
O198       Cd201   2.488   1_565  S
C199        O207   1.265       .  A
C199        C346   1.486       .  S
C200        O205   1.273       .  A
C200        O203   1.265       .  A
C200        C479   1.478       .  S
Cd201       O208   2.399       .  S
Cd201       O207   2.393       .  S
Cd201       O206   2.410   1_545  S
Cd201       O202   2.468       .  S
Cd201       O205   2.486   1_545  S
Cd201       O203   2.400   1_545  S
C204        O208   1.266       .  A
C204        C299   1.484       .  S
O209        C212   1.275       .  A
O209       Cd214   2.469       .  S
C210        O219   1.266       .  A
C210        O215   1.274       .  A
C210        C406   1.484       .  S
O211        C217   1.273       .  A
O211       Cd214   2.463       .  S
C212        O220   1.266       .  A
C212        C266   1.479       .  S
C213        O218   1.274       .  A
C213        O216   1.267       .  A
C213        C239   1.474       .  S
Cd214       O221   2.408       .  S
Cd214       O220   2.382       .  S
Cd214       O219   2.399       .  S
Cd214       O215   2.487       .  S
Cd214       O218   2.464       .  S
Cd214       O216   2.382       .  S
C217        O221   1.267       .  A
C217        C639   1.478       .  S
O222        C225   1.273       .  A
O222       Cd227   2.481       .  S
C223        O232   1.263       .  A
C223        O228   1.272       .  A
C223        C246   1.478       .  S
O224        C230   1.271       .  A
O224       Cd227   2.485       .  S
C225        O233   1.267       .  A
C225        C279   1.479       .  S
C226        O231   1.272       .  A
C226        O229   1.267       .  A
C226       C1213   1.473   1_554  S
Cd227       O234   2.412       .  S
Cd227       O233   2.408       .  S
Cd227       O232   2.386       .  S
Cd227       O228   2.483       .  S
Cd227       O231   2.463       .  S
Cd227       O229   2.404       .  S
C230        O234   1.265       .  A
C230        C759   1.483       .  S
C235        C236   1.402       .  A
C235        C240   1.393       .  A
C235        F253   1.358       .  S
C236        C241   1.478       .  S
C236        C237   1.408       .  A
C237        C238   1.400       .  A
C237        F242   1.358       .  S
C238        C239   1.406       .  A
C238        F254   1.358       .  S
C239        C240   1.408       .  A
C240        F243   1.358       .  S
C241        C244   1.402       .  A
C241        C248   1.407       .  A
C244        C245   1.394       .  A
C244        F249   1.358       .  S
C245        C246   1.411       .  A
C245        F251   1.358       .  S
C246        C247   1.406       .  A
C247        C248   1.399       .  A
C247        F250   1.358       .  S
C248        F252   1.358       .  S
C255        C256   1.402       .  A
C255        C260   1.393       .  A
C255        F273   1.358       .  S
C256        C261   1.476       .  S
C256        C257   1.406       .  A
C257        C258   1.400       .  A
C257        F262   1.358       .  S
C258        C259   1.407       .  A
C258        F274   1.358       .  S
C259       C1180   1.473       .  S
C259        C260   1.407       .  A
C260        F263   1.358       .  S
C261        C264   1.406       .  A
C261        C268   1.401       .  A
C264        C265   1.398       .  A
C264        F269   1.358       .  S
C265        C266   1.407       .  A
C265        F271   1.357       .  S
C266        C267   1.412       .  A
C267        C268   1.395       .  A
C267        F270   1.358       .  S
C268        F272   1.358       .  S
C275        C276   1.401       .  A
C275       C1234   1.392       .  A
C275        F293   1.358       .  S
C276        C281   1.477       .  S
C276        C277   1.405       .  A
C277        C278   1.404       .  A
C277        F282   1.358       .  S
C278       C1233   1.411       .  A
C278        F294   1.358       .  S
C279        C280   1.409   1_554  A
C279       C1232   1.406       .  A
C280       C1229   1.396       .  A
C280        F283   1.358       .  S
C281        C284   1.402       .  A
C281        C288   1.407       .  A
C284        C285   1.397       .  A
C284        F289   1.358       .  S
C285        C286   1.409       .  A
C285        F291   1.358       .  S
C286        C287   1.404       .  A
C287        C288   1.399       .  A
C287        F290   1.358       .  S
C288        F292   1.358       .  S
C295        C296   1.399       .  A
C295        C300   1.396       .  A
C295       F1267   1.358       .  S
C296       C1255   1.473   1_554  S
C296        C297   1.404   1_545  A
C297        C298   1.401       .  A
C297        F302   1.358       .  S
C298        C299   1.409   1_565  A
C298        F314   1.358       .  S
C299        C300   1.413       .  A
C300        F303   1.358       .  S
C301       C1250   1.476       .  S
C301        C304   1.402       .  A
C301        C308   1.406       .  A
C304        C305   1.394       .  A
C304        F309   1.358       .  S
C305        C306   1.406       .  A
C305        F311   1.358       .  S
C306        C307   1.407       .  A
C307        C308   1.401       .  A
C307        F310   1.358       .  S
C308       F1266   1.358       .  S
F312       C1262   1.358   1_554  S
F313       C1249   1.358       .  S
C315        C316   1.403   1_565  A
C315        C320   1.397       .  A
C315        F333   1.358       .  S
C316        C321   1.481       .  S
C316        C317   1.406       .  A
C317        C318   1.400       .  A
C317        F322   1.358       .  S
C318        C319   1.408       .  A
C318        F334   1.358       .  S
C319        C320   1.411   1_545  A
C320        F323   1.358       .  S
C321        C324   1.407   1_545  A
C321        C328   1.404       .  A
C324        C325   1.400       .  A
C324        F329   1.358       .  S
C325        C326   1.406   1_565  A
C325        F331   1.358       .  S
C326        C327   1.409       .  A
C327        C328   1.397       .  A
C327        F330   1.358       .  S
C328        F332   1.358       .  S
C335        C336   1.399       .  A
C335        C340   1.397       .  A
C335        F353   1.358       .  S
C336        C341   1.477       .  S
C336        C337   1.404       .  A
C337       C1292   1.405       .  A
C337       F1296   1.358       .  S
C338       C1291   1.403       .  A
C338       C1293   1.410       .  A
C338        F354   1.357       .  S
C339       C1125   1.491   1_554  S
C339        C340   1.414       .  A
C339       C1292   1.411       .  A
C340        F343   1.358       .  S
C341        C344   1.405       .  A
C341        C348   1.399       .  A
F342       C1291   1.358       .  S
C344        C345   1.405       .  A
C344        F349   1.357       .  S
C345        C346   1.411       .  A
C345        F351   1.358       .  S
C346        C347   1.413       .  A
C347        C348   1.394       .  A
C347        F350   1.358       .  S
C348        F352   1.358       .  S
C355        C356   1.408       .  A
C355        C360   1.401       .  A
C355        F373   1.358       .  S
C356        C361   1.486       .  S
C356        C357   1.403       .  A
C357        C358   1.399       .  A
C357        F362   1.358       .  S
C358        C359   1.414       .  A
C358        F374   1.358       .  S
C359        C360   1.409       .  A
C360        F363   1.357       .  S
C361        C364   1.406       .  A
C361        C368   1.409       .  A
C364        C365   1.397       .  A
C364        F369   1.358       .  S
C365        C366   1.405       .  A
C365       F1325   1.358   1_554  S
C366        C367   1.404       .  A
C367        C368   1.401       .  A
C367        F370   1.358       .  S
C368        F372   1.358       .  S
F371       C1319   1.358       .  S
C375        C376   1.404       .  A
C375        C380   1.396       .  A
C375        F393   1.358       .  S
C376        C381   1.487       .  S
C376        C377   1.410       .  A
C377        C378   1.404       .  A
C377        F382   1.358       .  S
C378        C379   1.406       .  A
C378        F394   1.358       .  S
C379        C380   1.408       .  A
C380        F383   1.358       .  S
C381        C384   1.410       .  A
C381        C388   1.403       .  A
C384        C385   1.403       .  A
C384        F389   1.358       .  S
C385        C386   1.407       .  A
C385        F391   1.358       .  S
C386        C387   1.412       .  A
C387        C388   1.397       .  A
C387        F390   1.358       .  S
C388        F392   1.358       .  S
C395        C396   1.406       .  A
C395        C400   1.402       .  A
C395        F413   1.358       .  S
C396        C401   1.478       .  S
C396        C397   1.401       .  A
C397        C398   1.394       .  A
C397        F402   1.358       .  S
C398        C399   1.410       .  A
C398        F414   1.358       .  S
C399        C400   1.408       .  A
C400        F403   1.358       .  S
C401        C404   1.401       .  A
C401        C408   1.406       .  A
C404        C405   1.395       .  A
C404        F409   1.359       .  S
C405        C406   1.412       .  A
C405        F411   1.358       .  S
C406        C407   1.409       .  A
C407        C408   1.402       .  A
C407        F410   1.357       .  S
C408        F412   1.358       .  S
C415        C416   1.408       .  A
C415        C420   1.407       .  A
C415        F433   1.358       .  S
C416        C421   1.490       .  S
C416        C417   1.404       .  A
C417        C418   1.399       .  A
C417        F422   1.358       .  S
C418        C419   1.412       .  A
C418        F434   1.358       .  S
C419        C420   1.411       .  A
C420        F423   1.357       .  S
C421        C424   1.409       .  A
C421        C428   1.404       .  A
C424        C425   1.405       .  A
C424        F429   1.358       .  S
C425        C426   1.408       .  A
C425        F431   1.357       .  S
C426        C427   1.412       .  A
C427        C428   1.400       .  A
C427        F430   1.358       .  S
C428        F432   1.358       .  S
C435        C436   1.407   1_655  A
C435        C440   1.403   1_655  A
C435       F1407   1.358       .  S
C436       C1395   1.487       .  S
C436        C437   1.404       .  A
C437        C438   1.400       .  A
C437        F442   1.358       .  S
C438        C439   1.411       .  A
C438        F454   1.358       .  S
C439        C440   1.408       .  A
C440        F443   1.358   1_455  S
C441       C1390   1.478   1_554  S
C441        C444   1.406       .  A
C441        C448   1.404   1_455  A
C444        C445   1.398       .  A
C444        F449   1.358       .  S
C445        C446   1.407       .  A
C445        F451   1.358       .  S
C446        C447   1.408   1_455  A
C447        C448   1.395       .  A
C447        F450   1.358       .  S
C448       F1406   1.358       .  S
F452       C1402   1.358       .  S
F453       C1389   1.358   1_554  S
C455        C456   1.406       .  A
C455        C460   1.401       .  A
C455        F473   1.358       .  S
C456        C461   1.492       .  S
C456        C457   1.409   1_455  A
C457        C458   1.401       .  A
C457        F462   1.358       .  S
C458        C459   1.406   1_655  A
C458        F474   1.357       .  S
C459        C460   1.413       .  A
C460        F463   1.358       .  S
C461        C464   1.411       .  A
C461        C468   1.406   1_455  A
C464        C465   1.404       .  A
C464        F469   1.357       .  S
C465        C466   1.406       .  A
C465        F471   1.358       .  S
C466        C467   1.409   1_455  A
C467        C468   1.397       .  A
C467        F470   1.358       .  S
C468        F472   1.358       .  S
C475        C476   1.404       .  A
C475        C480   1.396       .  A
C475        F493   1.358       .  S
C476        C481   1.482       .  S
C476        C477   1.407       .  A
C477        C478   1.401       .  A
C477        F482   1.358       .  S
C478        C479   1.406       .  A
C478        F494   1.358       .  S
C479        C480   1.409       .  A
C480        F483   1.358       .  S
C481        C484   1.407       .  A
C481        C488   1.402       .  A
C484        C485   1.404       .  A
C484        F489   1.358       .  S
C485        C486   1.409       .  A
C485        F491   1.357       .  S
C486        C487   1.412       .  A
C487        C488   1.394       .  A
C487        F490   1.358       .  S
C488        F492   1.358       .  S
C495        C496   1.403       .  A
C495        C500   1.393       .  A
C495        F513   1.358       .  S
C496        C501   1.479       .  S
C496        C497   1.407       .  A
C497        C498   1.402       .  A
C497        F502   1.358       .  S
C498        C499   1.408       .  A
C498        F514   1.358       .  S
C499        C500   1.408       .  A
C500        F503   1.358       .  S
C501        C504   1.405       .  A
C501        C508   1.403       .  A
C504        C505   1.397       .  A
C504        F509   1.358       .  S
C505        C506   1.408       .  A
C505        F511   1.358       .  S
C506        C507   1.412       .  A
C507        C508   1.399       .  A
C507        F510   1.358       .  S
C508        F512   1.358       .  S
C515        C516   1.403       .  A
C515        C520   1.396       .  A
C515        F533   1.358       .  S
C516        C521   1.482       .  S
C516        C517   1.407       .  A
C517        C518   1.402       .  A
C517        F522   1.358       .  S
C518        C519   1.408       .  A
C518        F534   1.358       .  S
C519       C1076   1.483       .  S
C519        C520   1.411       .  A
C520       F1477   1.358       .  S
C521        C524   1.401       .  A
C521        C528   1.407       .  A
F523       C1474   1.358       .  S
C524        C525   1.396       .  A
C524        F529   1.358       .  S
C525        C526   1.413       .  A
C525        F531   1.358       .  S
C526        C527   1.408       .  A
C527        C528   1.402       .  A
C527        F530   1.357       .  S
C528        F532   1.358       .  S
C535        C536   1.401       .  A
C535        C540   1.397       .  A
C535        F553   1.358       .  S
C536        C541   1.475   1_565  S
C536        C537   1.403       .  A
C537        C538   1.399       .  A
C537        F542   1.358   1_565  S
C538        C539   1.410       .  A
C538        F554   1.357       .  S
C539        C540   1.412       .  A
C540        F543   1.358       .  S
C541        C544   1.403       .  A
C541        C548   1.401       .  A
C544        C545   1.400       .  A
C544        F549   1.358       .  S
C545        C546   1.409       .  A
C545        F551   1.358       .  S
C546        C547   1.411       .  A
C547        C548   1.396       .  A
C547        F550   1.358       .  S
C548        F552   1.358       .  S
C555        C556   1.410       .  A
C555        C560   1.405       .  A
C555        F573   1.358       .  S
C556        C561   1.487       .  S
C556        C557   1.404       .  A
C557        C558   1.395       .  A
C557        F562   1.358       .  S
C558        C559   1.408       .  A
C558        F574   1.358       .  S
C559        C560   1.408       .  A
C560        F563   1.358       .  S
C561        C564   1.408       .  A
C561        C568   1.404       .  A
C564        C565   1.403       .  A
C564        F569   1.358       .  S
C565        C566   1.408       .  A
C565        F571   1.357       .  S
C566        C567   1.412       .  A
C567        C568   1.398       .  A
C567        F570   1.358       .  S
C568        F572   1.358       .  S
C575        C576   1.405       .  A
C575        C580   1.402       .  A
C575        F593   1.358       .  S
C576        C581   1.493       .  S
C576        C577   1.409       .  A
C577        C578   1.406       .  A
C577        F582   1.358       .  S
C578        C579   1.408       .  A
C578        F594   1.357       .  S
C579        C580   1.412       .  A
C580        F583   1.358       .  S
C581        C584   1.409       .  A
C581        C588   1.404       .  A
C584       C1539   1.408   1_554  A
C584        F589   1.357   1_554  S
C585       C1538   1.406       .  A
C585       C1540   1.409       .  A
C585        F591   1.357       .  S
C586       C1037   1.493   1_554  S
C586        C587   1.412       .  A
C586       C1539   1.410   1_554  A
C587        C588   1.399       .  A
C587        F590   1.358       .  S
C588        F592   1.358       .  S
C595        C596   1.407       .  A
C595        C600   1.400       .  A
C595        F613   1.358       .  S
C596        C601   1.482       .  S
C596        C597   1.403       .  A
C597        C598   1.396       .  A
C597        F602   1.358       .  S
C598        C599   1.412       .  A
C598        F614   1.358       .  S
C599        C600   1.409       .  A
C600        F603   1.358       .  S
C601        C604   1.408       .  A
C601        C608   1.406       .  A
C604        C605   1.399       .  A
C604        F609   1.358       .  S
C605        C606   1.404       .  A
C605       F1565   1.358       .  S
C606        C607   1.405       .  A
C607        C608   1.397       .  A
C607        F610   1.358       .  S
C608        F612   1.358       .  S
F611       C1559   1.358       .  S
C615        C616   1.404       .  A
C615        C620   1.400       .  A
C615        F633   1.358       .  S
C616        C621   1.491       .  S
C616        C617   1.409       .  A
C617        C618   1.405       .  A
C617        F622   1.358       .  S
C618        C619   1.410       .  A
C618        F634   1.357       .  S
C619        C620   1.414       .  A
C620        F623   1.358       .  S
C621        C624   1.410       .  A
C621        C628   1.405       .  A
C624        C625   1.405       .  A
C624        F629   1.358       .  S
C625        C626   1.407       .  A
C625        F631   1.357       .  S
C626        C627   1.410       .  A
C627        C628   1.400       .  A
C627        F630   1.358       .  S
C628        F632   1.358       .  S
C635        C636   1.404       .  A
C635        C640   1.400       .  A
C635        F653   1.357   1_455  S
C636        C641   1.475   1_455  S
C636        C637   1.401       .  A
C637        C638   1.397       .  A
C637        F642   1.358       .  S
C638        C639   1.410       .  A
C638        F654   1.358       .  S
C639        C640   1.407       .  A
C640        F643   1.358       .  S
C641        C644   1.400       .  A
C641        C648   1.402       .  A
C644        C645   1.396       .  A
C644        F649   1.358       .  S
C645        C646   1.412       .  A
C645        F651   1.358       .  S
C646        C647   1.412       .  A
C647        C648   1.402       .  A
C647        F650   1.357       .  S
C648        F652   1.358   1_655  S
C655        C656   1.403       .  A
C655        C660   1.395       .  A
C655        F673   1.358       .  S
C656        C661   1.482       .  S
C656        C657   1.408       .  A
C657        C658   1.403       .  A
C657        F662   1.358       .  S
C658        C659   1.407       .  A
C658        F674   1.358       .  S
C659        C660   1.408       .  A
C660        F663   1.358       .  S
C661        C664   1.404       .  A
C661        C668   1.405       .  A
C664        C665   1.397       .  A
C664        F669   1.358       .  S
C665        C666   1.411       .  A
C665        F671   1.358       .  S
C666       C1075   1.485       .  S
C666        C667   1.410       .  A
C667        C668   1.401       .  A
C667       F1624   1.357       .  S
C668        F672   1.358       .  S
F670       C1621   1.358       .  S
C675        C676   1.404       .  A
C675        C680   1.404       .  A
C675        F693   1.358       .  S
C676        C681   1.476       .  S
C676        C677   1.399       .  A
C677        C678   1.393       .  A
C677        F682   1.358       .  S
C678        C679   1.412       .  A
C678        F694   1.358       .  S
C679        C680   1.411       .  A
C680        F683   1.358       .  S
C681        C684   1.404       .  A
C681        C688   1.401       .  A
C684        C685   1.402       .  A
C684        F689   1.357       .  S
C685        C686   1.410       .  A
C685        F691   1.357       .  S
C686        C687   1.412       .  A
C687        C688   1.393       .  A
C687        F690   1.358       .  S
C688        F692   1.358       .  S
C695        C696   1.408       .  A
C695        C700   1.400       .  A
C695       F1667   1.358   1_554  S
C696       C1655   1.485   1_554  S
C696        C697   1.404       .  A
C697        C698   1.398       .  A
C697        F702   1.358       .  S
C698        C699   1.413       .  A
C698        F714   1.358       .  S
C699        C700   1.407       .  A
C700        F703   1.357       .  S
C701       C1650   1.481       .  S
C701        C704   1.404       .  A
C701        C708   1.410       .  A
C704        C705   1.392       .  A
C704        F709   1.358       .  S
C705        C706   1.406       .  A
C705        F711   1.358       .  S
C706        C707   1.405       .  A
C707        C708   1.402       .  A
C707        F710   1.358       .  S
C708        F712   1.358       .  S
F713       C1649   1.358       .  S
C715        C716   1.402       .  A
C715        C720   1.393       .  A
C715        F733   1.358       .  S
C716        C721   1.478       .  S
C716        C717   1.407       .  A
C717        C718   1.401       .  A
C717        F722   1.358       .  S
C718        C719   1.407       .  A
C718        F734   1.358       .  S
C719        C720   1.410       .  A
C720        F723   1.358       .  S
C721        C724   1.406       .  A
C721        C728   1.403       .  A
C724        C725   1.397       .  A
C724        F729   1.358       .  S
C725        C726   1.406       .  A
C725        F731   1.358       .  S
C726        C727   1.410       .  A
C727        C728   1.397       .  A
C727        F730   1.358       .  S
C728        F732   1.358       .  S
C735        C736   1.409       .  A
C735        C740   1.403       .  A
C735        F753   1.358       .  S
C736        C741   1.487       .  S
C736        C737   1.405       .  A
C737        C738   1.398       .  A
C737        F742   1.358       .  S
C738        C739   1.410       .  A
C738        F754   1.358       .  S
C739        C740   1.407       .  A
C740        F743   1.358       .  S
C741        C744   1.409       .  A
C741        C748   1.404       .  A
C744        C745   1.406       .  A
C744        F749   1.358       .  S
C745        C746   1.409       .  A
C745        F751   1.358       .  S
C746        C747   1.409       .  A
C747        C748   1.396       .  A
C747        F750   1.358       .  S
C748        F752   1.358       .  S
C755        C756   1.403       .  A
C755        C760   1.404       .  A
C755        F773   1.357       .  S
C756        C761   1.475   1_565  S
C756        C757   1.401       .  A
C757        C758   1.393       .  A
C757        F762   1.359   1_565  S
C758        C759   1.410       .  A
C758        F774   1.358       .  S
C759        C760   1.411       .  A
C760        F763   1.358       .  S
C761        C764   1.404       .  A
C761        C768   1.400       .  A
C764        C765   1.405       .  A
C764        F769   1.358       .  S
C765        C766   1.411       .  A
C765        F771   1.357       .  S
C766        C767   1.410       .  A
C767        C768   1.393       .  A
C767        F770   1.358       .  S
C768        F772   1.358       .  S
C775        C776   1.407       .  A
C775        C780   1.401       .  A
C775        F793   1.358       .  S
C776        C781   1.483       .  S
C776        C777   1.404       .  A
C777        C778   1.399       .  A
C777        F782   1.358       .  S
C778        C779   1.409       .  A
C778        F794   1.358       .  S
C779        C780   1.406       .  A
C780        F783   1.358       .  S
C781        C784   1.406       .  A
C781        C788   1.401       .  A
C784        C785   1.404       .  A
C784        F789   1.358       .  S
C785        C786   1.410       .  A
C785        F791   1.357       .  S
C786        C787   1.414       .  A
C787        C788   1.397       .  A
C787        F790   1.358       .  S
C788        F792   1.358       .  S
C795        C796   1.406       .  A
C795        C800   1.401       .  A
C795        F813   1.358       .  S
C796        C801   1.478       .  S
C796        C797   1.403       .  A
C797        C798   1.396       .  A
C797        F802   1.358       .  S
C798        C799   1.408       .  A
C798        F814   1.358       .  S
C799        C800   1.407       .  A
C800        F803   1.358       .  S
C801        C804   1.402       .  A
C801        C808   1.404       .  A
C804        C805   1.398       .  A
C804        F809   1.358       .  S
C805        C806   1.412       .  A
C805        F811   1.358       .  S
C806        C807   1.408       .  A
C807        C808   1.398       .  A
C807        F810   1.358       .  S
C808        F812   1.358       .  S
C815        C816   1.407       .  A
C815        C820   1.402       .  A
C815        F833   1.357       .  S
C816        C821   1.486       .  S
C816        C817   1.408       .  A
C817       C1772   1.396       .  A
C817        F822   1.358       .  S
C818       C1771   1.394       .  A
C818       C1773   1.408       .  A
C818        F834   1.358       .  S
C819        C982   1.475       .  S
C819        C820   1.406   1_556  A
C819       C1772   1.405   1_556  A
C820        F823   1.357       .  S
C821        C824   1.410       .  A
C821        C828   1.407       .  A
C824        C825   1.404       .  A
C824        F829   1.358       .  S
C825        C826   1.404       .  A
C825        F831   1.358       .  S
C826        C827   1.401       .  A
C827        C828   1.394       .  A
C827        F830   1.358       .  S
C828        F832   1.358       .  S
C835        C836   1.409       .  A
C835       C1794   1.402       .  A
C835       F1807   1.358       .  S
C836        C841   1.489       .  S
C836        C837   1.405       .  A
C837        C838   1.400       .  A
C837        F842   1.358       .  S
C838       C1793   1.409       .  A
C838        F854   1.358       .  S
C839        C840   1.409   1_556  A
C839       C1792   1.411       .  A
C840       C1789   1.405   1_554  A
C840        F843   1.357       .  S
C841        C844   1.408       .  A
C841        C848   1.404       .  A
C844        C845   1.406       .  A
C844        F849   1.358       .  S
C845        C846   1.411       .  A
C845        F851   1.358       .  S
C846        C847   1.412       .  A
C847        C848   1.395       .  A
C847        F850   1.358       .  S
C848        F852   1.358       .  S
F853       C1789   1.357   1_554  S
C855        C856   1.399   1_655  A
C855        C860   1.394       .  A
C855        F873   1.358       .  S
C856        C861   1.479       .  S
C856        C857   1.406       .  A
C857        C858   1.407   1_455  A
C857        F862   1.358       .  S
C858        C859   1.412       .  A
C858        F874   1.357       .  S
C859        C860   1.413       .  A
C860        F863   1.358       .  S
C861        C864   1.402       .  A
C861        C868   1.406       .  A
C864        C865   1.398       .  A
C864        F869   1.358       .  S
C865        C866   1.411       .  A
C865        F871   1.358       .  S
C866        C867   1.408       .  A
C867        C868   1.403       .  A
C867        F870   1.358       .  S
C868        F872   1.357       .  S
C875        C876   1.409       .  A
C875        C880   1.403       .  A
C875        F893   1.358       .  S
C876        C881   1.487       .  S
C876        C877   1.404       .  A
C877        C878   1.398       .  A
C877        F882   1.358       .  S
C878        C879   1.410       .  A
C878        F894   1.358       .  S
C879        C880   1.407       .  A
C880        F883   1.358       .  S
C881        C884   1.403       .  A
C881        C888   1.409       .  A
C884        C885   1.395       .  A
C884        F889   1.358       .  S
C885        C886   1.412       .  A
C885        F891   1.358       .  S
C886        C887   1.410       .  A
C887        C888   1.405       .  A
C887        F890   1.358       .  S
C888        F892   1.358       .  S
C895        C896   1.403       .  A
C895        C900   1.393       .  A
C895        F913   1.358       .  S
C896        C901   1.486       .  S
C896        C897   1.409       .  A
C897        C898   1.406       .  A
C897        F902   1.358       .  S
C898        C899   1.410       .  A
C898        F914   1.358       .  S
C899        C900   1.411       .  A
C900        F903   1.358       .  S
C901        C904   1.409       .  A
C901        C908   1.404       .  A
C904        C905   1.403       .  A
C904        F909   1.358       .  S
C905        C906   1.406       .  A
C905        F911   1.357       .  S
C906        C907   1.410       .  A
C907        C908   1.398       .  A
C907        F910   1.358       .  S
C908        F912   1.358       .  S
C915        C916   1.407       .  A
C915        C920   1.402       .  A
C915        F933   1.358       .  S
C916        C921   1.480       .  S
C916        C917   1.402       .  A
C917        C918   1.398       .  A
C917        F922   1.358       .  S
C918        C919   1.409       .  A
C918        F934   1.358       .  S
C919        C920   1.407       .  A
C920        F923   1.358       .  S
C921        C924   1.406       .  A
C921        C928   1.401       .  A
C924        C925   1.403       .  A
C924        F929   1.358       .  S
C925        C926   1.408       .  A
C925        F931   1.357       .  S
C926        C927   1.413       .  A
C927        C928   1.398       .  A
C927        F930   1.358       .  S
C928        F932   1.358       .  S
C935        C936   1.407       .  A
C935        C940   1.402       .  A
C935        F953   1.358       .  S
C936        C941   1.485       .  S
C936        C937   1.403       .  A
C937        C938   1.398       .  A
C937        F942   1.358       .  S
C938        C939   1.411       .  A
C938       F1908   1.358       .  S
C939        C971   1.486       .  S
C939        C940   1.409       .  A
C940        F943   1.358       .  S
C941        C944   1.407       .  A
C941        C948   1.404       .  A
C944        C945   1.401       .  A
C944        F949   1.358       .  S
C945        C946   1.406       .  A
C945        F951   1.358       .  S
C946        C947   1.410       .  A
C947        C948   1.400       .  A
C947        F950   1.358       .  S
C948        F952   1.358       .  S
F954       C1892   1.358       .  S
O955        C958   1.271       .  A
O955       Cd960   2.453       .  S
C956        O965   1.268       .  A
C956        O961   1.271       .  A
C956       C1833   1.485       .  S
O957        C963   1.276       .  A
O957       Cd960   2.520       .  S
C958        O966   1.267       .  A
C958       C1900   1.472       .  S
C959        O964   1.276       .  A
C959        O962   1.264       .  A
C959       C1880   1.486       .  S
Cd960       O967   2.405       .  S
Cd960       O966   2.416       .  S
Cd960       O965   2.421       .  S
Cd960       O961   2.466       .  S
Cd960       O964   2.514       .  S
Cd960       O962   2.398       .  S
C963        O967   1.266       .  A
C963       C1860   1.491       .  S
O968        C971   1.272       .  A
O968       Cd973   2.478       .  S
C969        O978   1.264       .  A
C969        O974   1.271       .  A
C969       C1820   1.488       .  S
O970        C976   1.273       .  A
O970       Cd973   2.501       .  S
C971        O979   1.268       .  A
C972        O977   1.271       .  A
C972        O975   1.264       .  A
C972       C1793   1.482       .  S
Cd973       O980   2.409       .  S
Cd973       O979   2.430       .  S
Cd973       O978   2.429       .  S
Cd973       O974   2.504       .  S
Cd973       O977   2.510       .  S
Cd973       O975   2.434       .  S
C976        O980   1.265       .  A
C976       C1873   1.484       .  S
O981        C984   1.272       .  A
O981       Cd986   2.486       .  S
C982        O991   1.265       .  A
C982        O987   1.270       .  A
O983        C989   1.273       .  A
O983       Cd986   2.504       .  S
C984        O992   1.266       .  A
C984       C1753   1.482       .  S
C985       C1740   1.487       .  S
Cd986       O993   2.424       .  S
Cd986       O992   2.411       .  S
Cd986       O991   2.424       .  S
Cd986       O987   2.484       .  S
Cd986       O990   2.508       .  S
Cd986       O988   2.417       .  S
C989        O993   1.266       .  A
C989       C1853   1.490       .  S
O994        C997   1.274       .  A
O994       Cd999   2.479       .  S
C995       O1004   1.265       .  A
C995       O1000   1.273       .  A
C995       C1720   1.485       .  S
O996       C1002   1.273       .  A
O996       Cd999   2.476       .  S
C997       O1005   1.267       .  A
C997       C1760   1.482       .  S
C998       O1003   1.273       .  A
C998       O1001   1.267       .  A
C998       C1700   1.486       .  S
Cd999      O1006   2.409       .  S
Cd999      O1005   2.399       .  S
Cd999      O1004   2.409       .  S
Cd999      O1000   2.483       .  S
Cd999      O1003   2.489       .  S
Cd999      O1001   2.419       .  S
C1002      O1006   1.265       .  A
C1002      C1733   1.476       .  S
O1007      C1010   1.273       .  A
O1007     Cd1012   2.498       .  S
C1008      O1017   1.265       .  A
C1008      O1013   1.274       .  A
C1008      C1660   1.479       .  S
O1009      C1015   1.273       .  A
O1009     Cd1012   2.485       .  S
C1010      O1018   1.266       .  A
C1010      C1633   1.489       .  S
C1011      O1016   1.272       .  A
C1011      O1014   1.264       .  A
C1011      C1673   1.475       .  S
Cd1012     O1019   2.405       .  S
Cd1012     O1018   2.427       .  S
Cd1012     O1017   2.399       .  S
Cd1012     O1013   2.495       .  S
Cd1012     O1016   2.486       .  S
Cd1012     O1014   2.391       .  S
C1015      O1019   1.267       .  A
C1015      C1613   1.476       .  S
O1020      C1023   1.275       .  A
O1020     Cd1025   2.462       .  S
C1021      O1030   1.267       .  A
C1021      O1026   1.274       .  A
C1021      C1840   1.483       .  S
O1022      C1028   1.274       .  A
O1022     Cd1025   2.478       .  S
C1023      O1031   1.267       .  A
C1023      C1653   1.482       .  S
C1024      O1029   1.275       .  A
C1024      O1027   1.267       .  A
C1024      C1680   1.483       .  S
Cd1025     O1032   2.392       .  S
Cd1025     O1031   2.396       .  S
Cd1025     O1030   2.395       .  S
Cd1025     O1026   2.489       .  S
Cd1025     O1029   2.477       .  S
Cd1025     O1027   2.388       .  S
C1028      O1032   1.266       .  A
C1028      C1780   1.485       .  S
O1033      C1036   1.271       .  A
O1033     Cd1038   2.470       .  S
C1034      C1560   1.482       .  S
O1035      C1041   1.275       .  A
O1035     Cd1038   2.510       .  S
C1036      O1044   1.266       .  A
C1036      C1600   1.483       .  S
C1037      O1042   1.275       .  A
C1037      O1040   1.267       .  A
Cd1038     O1045   2.419       .  S
Cd1038     O1044   2.409       .  S
Cd1038     O1043   2.419       .  S
Cd1038     O1039   2.454   1_556  S
Cd1038     O1042   2.517       .  S
Cd1038     O1040   2.419       .  S
C1041      O1045   1.264       .  A
C1041      C1580   1.486       .  S
O1046      C1049   1.272       .  A
O1046     Cd1051   2.478       .  S
C1047      O1056   1.266       .  A
C1047      O1052   1.272       .  A
C1047      C1640   1.492       .  S
O1048      C1054   1.274       .  A
O1048     Cd1051   2.507       .  S
C1049      O1057   1.267       .  A
C1049      C1553   1.486       .  S
C1050      O1055   1.273       .  A
C1050      O1053   1.264       .  A
C1050      C1520   1.482       .  S
Cd1051     O1058   2.402       .  S
Cd1051     O1057   2.442       .  S
Cd1051     O1056   2.423       .  S
Cd1051     O1052   2.508       .  S
Cd1051     O1055   2.517       .  S
Cd1051     O1053   2.396       .  S
C1054      O1058   1.265       .  A
C1054      C1573   1.487       .  S
O1059      C1062   1.273       .  A
O1059     Cd1064   2.456       .  S
C1060      O1069   1.267       .  A
C1060      O1065   1.273       .  A
C1060      C1493   1.484       .  S
O1061      C1067   1.275       .  A
O1061     Cd1064   2.515       .  S
C1062      O1070   1.267       .  A
C1062      C1453   1.478       .  S
C1063      O1068   1.276       .  A
C1063      O1066   1.266       .  A
C1063      C1480   1.485       .  S
Cd1064     O1071   2.412       .  S
Cd1064     O1070   2.396       .  S
Cd1064     O1069   2.393       .  S
Cd1064     O1065   2.476       .  S
Cd1064     O1068   2.496       .  S
Cd1064     O1066   2.420       .  S
C1067      O1071   1.266       .  A
C1067      C1440   1.493       .  S
O1072      C1075   1.269       .  A
O1072     Cd1077   2.478       .  S
C1073      O1082   1.266       .  A
C1073      O1078   1.270       .  A
C1073      C1460   1.475       .  S
O1074      C1080   1.272       .  A
O1074     Cd1077   2.517       .  S
C1075      O1083   1.266       .  A
C1076      O1081   1.272       .  A
C1076      O1079   1.263       .  A
Cd1077     O1084   2.400       .  S
Cd1077     O1083   2.432       .  S
Cd1077     O1082   2.422       .  S
Cd1077     O1078   2.465       .  S
Cd1077     O1081   2.498       .  S
Cd1077     O1079   2.411       .  S
C1080      O1084   1.264       .  A
C1080      C1513   1.489       .  S
O1085      C1088   1.274   1_655  A
O1085     Cd1090   2.457   1_655  S
C1086      O1095   1.268   1_655  A
C1086      O1091   1.275       .  A
C1086      C1380   1.484       .  S
O1087      C1093   1.276       .  A
O1087     Cd1090   2.493       .  S
C1088      O1096   1.267       .  A
C1088      C1393   1.476       .  S
C1089      O1094   1.276       .  A
C1089      O1092   1.266       .  A
C1089      C1800   1.490       .  S
Cd1090     O1097   2.422   1_455  S
Cd1090     O1096   2.401       .  S
Cd1090     O1095   2.388       .  S
Cd1090     O1091   2.471   1_455  S
Cd1090     O1094   2.499       .  S
Cd1090     O1092   2.399       .  S
C1093      O1097   1.267   1_455  A
C1093      C1420   1.488       .  S
O1098      C1101   1.272       .  A
O1098     Cd1103   2.500   1_455  S
C1099      O1108   1.265       .  A
C1099      O1104   1.271       .  A
C1099      C1353   1.492       .  S
O1100      C1106   1.271       .  A
O1100     Cd1103   2.511       .  S
C1101      O1109   1.266   1_455  A
C1101      C1400   1.490       .  S
C1102      O1107   1.272       .  A
C1102      O1105   1.265   1_655  A
C1102      C1413   1.488       .  S
Cd1103     O1110   2.435       .  S
Cd1103     O1109   2.438       .  S
Cd1103     O1108   2.434   1_655  S
Cd1103     O1104   2.512   1_655  S
Cd1103     O1107   2.505       .  S
Cd1103     O1105   2.430   1_655  S
C1106      O1110   1.266       .  A
C1106      C1533   1.487       .  S
O1111      C1114   1.273       .  A
O1111     Cd1116   2.501       .  S
C1112      O1121   1.265       .  A
C1112      O1117   1.273       .  A
C1112      C1313   1.484       .  S
O1113      C1119   1.273       .  A
O1113     Cd1116   2.510       .  S
C1114      O1122   1.266       .  A
C1114      C1373   1.478       .  S
C1115      O1120   1.274       .  A
C1115      O1118   1.266       .  A
C1115      C1333   1.480       .  S
Cd1116     O1123   2.407       .  S
Cd1116     O1122   2.391       .  S
Cd1116     O1121   2.407       .  S
Cd1116     O1117   2.482       .  S
Cd1116     O1120   2.495       .  S
Cd1116     O1118   2.413       .  S
C1119      O1123   1.265       .  A
C1119      C1813   1.488       .  S
O1124      C1127   1.277       .  A
O1124     Cd1129   2.478       .  S
C1125      O1134   1.265       .  A
C1125      O1130   1.275       .  A
O1126      C1132   1.273       .  A
O1126     Cd1129   2.457       .  S
C1127      O1135   1.267       .  A
C1127      C1340   1.487       .  S
C1128      C1320   1.470       .  S
Cd1129     O1136   2.412       .  S
Cd1129     O1135   2.412       .  S
Cd1129     O1134   2.407       .  S
Cd1129     O1130   2.515       .  S
Cd1129     O1133   2.476   1_556  S
Cd1129     O1131   2.404       .  S
C1132      O1136   1.267       .  A
C1132      C1500   1.480       .  S
O1137      C1140   1.271       .  A
O1137     Cd1142   2.509   1_565  S
C1138      O1147   1.266       .  A
C1138      O1143   1.272       .  A
C1138      C1280   1.479       .  S
O1139      C1145   1.271       .  A
O1139     Cd1142   2.498       .  S
C1140      O1148   1.264   1_565  A
C1140      C1240   1.486       .  S
C1141      O1146   1.271       .  A
C1141      O1144   1.264       .  A
C1141      C1260   1.476       .  S
Cd1142     O1149   2.407       .  S
Cd1142     O1148   2.405       .  S
Cd1142     O1147   2.415       .  S
Cd1142     O1143   2.462       .  S
Cd1142     O1146   2.484       .  S
Cd1142     O1144   2.407       .  S
C1145      O1149   1.265       .  A
C1145      C1693   1.483       .  S
O1150      C1153   1.271       .  A
O1150     Cd1155   2.489       .  S
C1151      O1160   1.266   1_545  A
C1151      O1156   1.272       .  A
C1151      C1273   1.480       .  S
O1152      C1158   1.274   1_565  A
O1152     Cd1155   2.477   1_565  S
C1153      O1161   1.265       .  A
C1153      C1300   1.480       .  S
C1154      O1159   1.272       .  A
C1154      O1157   1.265       .  A
C1154      C1433   1.485       .  S
Cd1155     O1162   2.406       .  S
Cd1155     O1161   2.410       .  S
Cd1155     O1160   2.418   1_545  S
Cd1155     O1156   2.458       .  S
Cd1155     O1159   2.509   1_545  S
Cd1155     O1157   2.412   1_545  S
C1158      O1162   1.265       .  A
C1158      C1253   1.484       .  S
O1163      C1166   1.274       .  A
O1163     Cd1168   2.477       .  S
C1164      O1173   1.266       .  A
C1164      O1169   1.273       .  A
C1164      C1360   1.487       .  S
O1165      C1171   1.272       .  A
O1165     Cd1168   2.477       .  S
C1166      O1174   1.266       .  A
C1166      C1220   1.484       .  S
C1167      O1172   1.273       .  A
C1167      O1170   1.266       .  A
C1167      C1193   1.477       .  S
Cd1168     O1175   2.402       .  S
Cd1168     O1174   2.412       .  S
Cd1168     O1173   2.417       .  S
Cd1168     O1169   2.495       .  S
Cd1168     O1172   2.468       .  S
Cd1168     O1170   2.390       .  S
C1171      O1175   1.266       .  A
C1171      C1593   1.476       .  S
O1176      C1179   1.271       .  A
O1176     Cd1181   2.493       .  S
C1177      O1186   1.264       .  A
C1177      O1182   1.271       .  A
C1177      C1200   1.475       .  S
O1178      C1184   1.270       .  A
O1178     Cd1181   2.479       .  S
C1179      O1187   1.265       .  A
C1179      C1233   1.484       .  S
C1180      O1185   1.271       .  A
C1180      O1183   1.265       .  A
Cd1181     O1188   2.400       .  S
Cd1181     O1187   2.398       .  S
Cd1181     O1186   2.402       .  S
Cd1181     O1182   2.469       .  S
Cd1181     O1185   2.472       .  S
Cd1181     O1183   2.396       .  S
C1184      O1188   1.264       .  A
C1184      C1713   1.477       .  S
C1189      C1190   1.400       .  A
C1189      C1194   1.393       .  A
C1189      F1207   1.358       .  S
C1190      C1195   1.473       .  S
C1190      C1191   1.405       .  A
C1191      C1192   1.400       .  A
C1191      F1196   1.358       .  S
C1192      C1193   1.407       .  A
C1192      F1208   1.358       .  S
C1193      C1194   1.410       .  A
C1194      F1197   1.358       .  S
C1195      C1198   1.401       .  A
C1195      C1202   1.405       .  A
C1198      C1199   1.395       .  A
C1198      F1203   1.358       .  S
C1199      C1200   1.409       .  A
C1199      F1205   1.358       .  S
C1200      C1201   1.407       .  A
C1201      C1202   1.398       .  A
C1201      F1204   1.358       .  S
C1202      F1206   1.358       .  S
C1209      C1210   1.403       .  A
C1209      C1214   1.395       .  A
C1209      F1227   1.358       .  S
C1210      C1215   1.478       .  S
C1210      C1211   1.407       .  A
C1211      C1212   1.401       .  A
C1211      F1216   1.358       .  S
C1212      C1213   1.405       .  A
C1212      F1228   1.358       .  S
C1213      C1214   1.407       .  A
C1214      F1217   1.358       .  S
C1215      C1218   1.405       .  A
C1215      C1222   1.402       .  A
C1218      C1219   1.399       .  A
C1218      F1223   1.358       .  S
C1219      C1220   1.408       .  A
C1219      F1225   1.357       .  S
C1220      C1221   1.413       .  A
C1221      C1222   1.398       .  A
C1221      F1224   1.358       .  S
C1222      F1226   1.358       .  S
C1229      C1230   1.405       .  A
C1229      F1247   1.358       .  S
C1230      C1235   1.485       .  S
C1230      C1231   1.409   1_556  A
C1231      C1232   1.401       .  A
C1231      F1236   1.358       .  S
C1232      F1248   1.358       .  S
C1233      C1234   1.411       .  A
C1234      F1237   1.358       .  S
C1235      C1238   1.403       .  A
C1235      C1242   1.408       .  A
C1238      C1239   1.394       .  A
C1238      F1243   1.358       .  S
C1239      C1240   1.411       .  A
C1239      F1245   1.358   1_565  S
C1240      C1241   1.409       .  A
C1241      C1242   1.404       .  A
C1241      F1244   1.358       .  S
C1242      F1246   1.358       .  S
C1249      C1250   1.400       .  A
C1249      C1254   1.396       .  A
C1250      C1251   1.405   1_545  A
C1251      C1252   1.399       .  A
C1251      F1256   1.358       .  S
C1252      C1253   1.408   1_565  A
C1252      F1268   1.357       .  S
C1253      C1254   1.414       .  A
C1254      F1257   1.358       .  S
C1255      C1258   1.400       .  A
C1255      C1262   1.405       .  A
C1258      C1259   1.395       .  A
C1258      F1263   1.358       .  S
C1259      C1260   1.408       .  A
C1259      F1265   1.358       .  S
C1260      C1261   1.407       .  A
C1261      C1262   1.401       .  A
C1261      F1264   1.358       .  S
C1269      C1270   1.404   1_565  A
C1269      C1274   1.397       .  A
C1269      F1287   1.358       .  S
C1270      C1275   1.481       .  S
C1270      C1271   1.407       .  A
C1271      C1272   1.398       .  A
C1271      F1276   1.358       .  S
C1272      C1273   1.407       .  A
C1272      F1288   1.358       .  S
C1273      C1274   1.411   1_545  A
C1274      F1277   1.358       .  S
C1275      C1278   1.407   1_545  A
C1275      C1282   1.404       .  A
C1278      C1279   1.398       .  A
C1278      F1283   1.358       .  S
C1279      C1280   1.406   1_565  A
C1279      F1285   1.358       .  S
C1280      C1281   1.410       .  A
C1281      C1282   1.397       .  A
C1281      F1284   1.358       .  S
C1282      F1286   1.358       .  S
C1289      C1290   1.401       .  A
C1289      C1294   1.397       .  A
C1289      F1307   1.359       .  S
C1290      C1295   1.480       .  S
C1290      C1291   1.405       .  A
C1292      F1308   1.357   1_554  S
C1293      C1294   1.415       .  A
C1294      F1297   1.358       .  S
C1295      C1298   1.407       .  A
C1295      C1302   1.402       .  A
C1298      C1299   1.403       .  A
C1298      F1303   1.358       .  S
C1299      C1300   1.408       .  A
C1299      F1305   1.358       .  S
C1300      C1301   1.409       .  A
C1301      C1302   1.395       .  A
C1301      F1304   1.358       .  S
C1302      F1306   1.358       .  S
C1309      C1310   1.405       .  A
C1309      C1314   1.398       .  A
C1309      F1327   1.358       .  S
C1310      C1315   1.477       .  S
C1310      C1311   1.401       .  A
C1311      C1312   1.397       .  A
C1311      F1316   1.358       .  S
C1312      C1313   1.414       .  A
C1312      F1328   1.358       .  S
C1313      C1314   1.408       .  A
C1314      F1317   1.357       .  S
C1315      C1318   1.404       .  A
C1315      C1322   1.406       .  A
C1318      C1319   1.395       .  A
C1318      F1323   1.358       .  S
C1319      C1320   1.406       .  A
C1320      C1321   1.405       .  A
C1321      C1322   1.399       .  A
C1321      F1324   1.358       .  S
C1322      F1326   1.358       .  S
C1329      C1330   1.405       .  A
C1329      C1334   1.397       .  A
C1329      F1347   1.358       .  S
C1330      C1335   1.487       .  S
C1330      C1331   1.409       .  A
C1331      C1332   1.404       .  A
C1331      F1336   1.358       .  S
C1332      C1333   1.406       .  A
C1332      F1348   1.358       .  S
C1333      C1334   1.408       .  A
C1334      F1337   1.358       .  S
C1335      C1338   1.408       .  A
C1335      C1342   1.404       .  A
C1338      C1339   1.401       .  A
C1338      F1343   1.358       .  S
C1339      C1340   1.407       .  A
C1339      F1345   1.357       .  S
C1340      C1341   1.413       .  A
C1341      C1342   1.400       .  A
C1341      F1344   1.358       .  S
C1342      F1346   1.358       .  S
C1349      C1350   1.407       .  A
C1349      C1354   1.405       .  A
C1349      F1367   1.358       .  S
C1350      C1355   1.486       .  S
C1350      C1351   1.403       .  A
C1351      C1352   1.398       .  A
C1351      F1356   1.358       .  S
C1352      C1353   1.413       .  A
C1352      F1368   1.358       .  S
C1353      C1354   1.411       .  A
C1354      F1357   1.357       .  S
C1355      C1358   1.404       .  A
C1355      C1362   1.407       .  A
C1358      C1359   1.399       .  A
C1358      F1363   1.358       .  S
C1359      C1360   1.412       .  A
C1359      F1365   1.358       .  S
C1360      C1361   1.408       .  A
C1361      C1362   1.404       .  A
C1361      F1364   1.357       .  S
C1362      F1366   1.357       .  S
C1369      C1370   1.408       .  A
C1369      C1374   1.404       .  A
C1369      F1387   1.358       .  S
C1370      C1375   1.479       .  S
C1370      C1371   1.401       .  A
C1371      C1372   1.393       .  A
C1371      F1376   1.358       .  S
C1372      C1373   1.408       .  A
C1372      F1388   1.358       .  S
C1373      C1374   1.408       .  A
C1374      F1377   1.358       .  S
C1375      C1378   1.406       .  A
C1375      C1382   1.401       .  A
C1378      C1379   1.401       .  A
C1378      F1383   1.358       .  S
C1379      C1380   1.409       .  A
C1379      F1385   1.358       .  S
C1380      C1381   1.412       .  A
C1381      C1382   1.395       .  A
C1381      F1384   1.358   1_655  S
C1382      F1386   1.358       .  S
C1389      C1390   1.406   1_655  A
C1389      C1394   1.398   1_655  A
C1390      C1391   1.403       .  A
C1391      C1392   1.395       .  A
C1391      F1396   1.358       .  S
C1392      C1393   1.409       .  A
C1392      F1408   1.358       .  S
C1393      C1394   1.406       .  A
C1394      F1397   1.358   1_455  S
C1395      C1398   1.407       .  A
C1395      C1402   1.404   1_455  A
C1398      C1399   1.404       .  A
C1398      F1403   1.358       .  S
C1399      C1400   1.410       .  A
C1399      F1405   1.357       .  S
C1400      C1401   1.411   1_455  A
C1401      C1402   1.399       .  A
C1401      F1404   1.358       .  S
C1409      C1410   1.405   1_455  A
C1409      C1414   1.398       .  A
C1409      F1427   1.358       .  S
C1410      C1415   1.490   1_655  S
C1410      C1411   1.409       .  A
C1411      C1412   1.404       .  A
C1411      F1416   1.358       .  S
C1412      C1413   1.409       .  A
C1412      F1428   1.358       .  S
C1413      C1414   1.411   1_655  A
C1414      F1417   1.358       .  S
C1415      C1418   1.409       .  A
C1415      C1422   1.405   1_455  A
C1418      C1419   1.402       .  A
C1418      F1423   1.358       .  S
C1419      C1420   1.406       .  A
C1419      F1425   1.357       .  S
C1420      C1421   1.412   1_455  A
C1421      C1422   1.401       .  A
C1421      F1424   1.358       .  S
C1422      F1426   1.358       .  S
C1429      C1430   1.404       .  A
C1429      C1434   1.397       .  A
C1429      F1447   1.358       .  S
C1430      C1435   1.489       .  S
C1430      C1431   1.409       .  A
C1431      C1432   1.405       .  A
C1431      F1436   1.358       .  S
C1432      C1433   1.408       .  A
C1432      F1448   1.358       .  S
C1433      C1434   1.410       .  A
C1434      F1437   1.358       .  S
C1435      C1438   1.408       .  A
C1435      C1442   1.403       .  A
C1438      C1439   1.406       .  A
C1438      F1443   1.358       .  S
C1439      C1440   1.410       .  A
C1439      F1445   1.357       .  S
C1440      C1441   1.413       .  A
C1441      C1442   1.398       .  A
C1441      F1444   1.358       .  S
C1442      F1446   1.358       .  S
C1449      C1450   1.402       .  A
C1449      C1454   1.395       .  A
C1449      F1467   1.358       .  S
C1450      C1455   1.476       .  S
C1450      C1451   1.406       .  A
C1451      C1452   1.399       .  A
C1451      F1456   1.358       .  S
C1452      C1453   1.407       .  A
C1452      F1468   1.358       .  S
C1453      C1454   1.410       .  A
C1454      F1457   1.358       .  S
C1455      C1458   1.406       .  A
C1455      C1462   1.403       .  A
C1458      C1459   1.398       .  A
C1458      F1463   1.358       .  S
C1459      C1460   1.406       .  A
C1459      F1465   1.358       .  S
C1460      C1461   1.408       .  A
C1461      C1462   1.396       .  A
C1461      F1464   1.358       .  S
C1462      F1466   1.358       .  S
C1469      C1470   1.402       .  A
C1469      C1474   1.397       .  A
C1469      F1487   1.358       .  S
C1470      C1475   1.480       .  S
C1470      C1471   1.405       .  A
C1471      C1472   1.403       .  A
C1471      F1476   1.357       .  S
C1472      C1473   1.408       .  A
C1472      F1488   1.358       .  S
C1473      C1474   1.411       .  A
C1475      C1478   1.401       .  A
C1475      C1482   1.406       .  A
C1478      C1479   1.399       .  A
C1478      F1483   1.358       .  S
C1479      C1480   1.412       .  A
C1479      F1485   1.358       .  S
C1480      C1481   1.407       .  A
C1481      C1482   1.403       .  A
C1481      F1484   1.357       .  S
C1482      F1486   1.358       .  S
C1489      C1490   1.400       .  A
C1489      C1494   1.393       .  A
C1489      F1507   1.358       .  S
C1490      C1495   1.474   1_565  S
C1490      C1491   1.404       .  A
C1491      C1492   1.402       .  A
C1491      F1496   1.358   1_565  S
C1492      C1493   1.411       .  A
C1492      F1508   1.358       .  S
C1493      C1494   1.412       .  A
C1494      F1497   1.358       .  S
C1495      C1498   1.403       .  A
C1495      C1502   1.401       .  A
C1498      C1499   1.397       .  A
C1498      F1503   1.358       .  S
C1499      C1500   1.407       .  A
C1499      F1505   1.357       .  S
C1500      C1501   1.412       .  A
C1501      C1502   1.398       .  A
C1501      F1504   1.358       .  S
C1502      F1506   1.358       .  S
C1509      C1510   1.404       .  A
C1509      C1514   1.406       .  A
C1509      F1527   1.357       .  S
C1510      C1515   1.477       .  S
C1510      C1511   1.399       .  A
C1511      C1512   1.394       .  A
C1511      F1516   1.358       .  S
C1512      C1513   1.412       .  A
C1512      F1528   1.358       .  S
C1513      C1514   1.412       .  A
C1514      F1517   1.357       .  S
C1515      C1518   1.406       .  A
C1515      C1522   1.400       .  A
C1518      C1519   1.405       .  A
C1518      F1523   1.358       .  S
C1519      C1520   1.408       .  A
C1519      F1525   1.357       .  S
C1520      C1521   1.409       .  A
C1521      C1522   1.395       .  A
C1521      F1524   1.358       .  S
C1522      F1526   1.358       .  S
C1529      C1530   1.403       .  A
C1529      C1534   1.398       .  A
C1529      F1547   1.358       .  S
C1530      C1535   1.487       .  S
C1530      C1531   1.408       .  A
C1531      C1532   1.407       .  A
C1531      F1536   1.358       .  S
C1532      C1533   1.409       .  A
C1532      F1548   1.358       .  S
C1533      C1534   1.409       .  A
C1534      F1537   1.358       .  S
C1535      C1538   1.408       .  A
C1535      C1542   1.403       .  A
C1538      F1543   1.358       .  S
C1539      F1545   1.357       .  S
C1540      C1541   1.412       .  A
C1541      C1542   1.399       .  A
C1541      F1544   1.358       .  S
C1542      F1546   1.358       .  S
C1549      C1550   1.405       .  A
C1549      C1554   1.401       .  A
C1549      F1567   1.358       .  S
C1550      C1555   1.482       .  S
C1550      C1551   1.403       .  A
C1551      C1552   1.401       .  A
C1551      F1556   1.358       .  S
C1552      C1553   1.411       .  A
C1552      F1568   1.358       .  S
C1553      C1554   1.408       .  A
C1554      F1557   1.357       .  S
C1555      C1558   1.406       .  A
C1555      C1562   1.404       .  A
C1558      C1559   1.402       .  A
C1558      F1563   1.358       .  S
C1559      C1560   1.408       .  A
C1560      C1561   1.409       .  A
C1561      C1562   1.398       .  A
C1561      F1564   1.358       .  S
C1562      F1566   1.358       .  S
C1569      C1570   1.402       .  A
C1569      C1574   1.396       .  A
C1569      F1587   1.358       .  S
C1570      C1575   1.486       .  S
C1570      C1571   1.409       .  A
C1571      C1572   1.405       .  A
C1571      F1576   1.358       .  S
C1572      C1573   1.409       .  A
C1572      F1588   1.358       .  S
C1573      C1574   1.411       .  A
C1574      F1577   1.358       .  S
C1575      C1578   1.408       .  A
C1575      C1582   1.403       .  A
C1578      C1579   1.403       .  A
C1578      F1583   1.358       .  S
C1579      C1580   1.407       .  A
C1579      F1585   1.357       .  S
C1580      C1581   1.412       .  A
C1581      C1582   1.400       .  A
C1581      F1584   1.358       .  S
C1582      F1586   1.358       .  S
C1589      C1590   1.405       .  A
C1589      C1594   1.400       .  A
C1589      F1607   1.358   1_455  S
C1590      C1595   1.474   1_455  S
C1590      C1591   1.401       .  A
C1591      C1592   1.396       .  A
C1591      F1596   1.358       .  S
C1592      C1593   1.409       .  A
C1592      F1608   1.358       .  S
C1593      C1594   1.406       .  A
C1594      F1597   1.358       .  S
C1595      C1598   1.401       .  A
C1595      C1602   1.403       .  A
C1598      C1599   1.394       .  A
C1598      F1603   1.358       .  S
C1599      C1600   1.412       .  A
C1599      F1605   1.358       .  S
C1600      C1601   1.411       .  A
C1601      C1602   1.401       .  A
C1601      F1604   1.357       .  S
C1602      F1606   1.357   1_655  S
C1609      C1610   1.404       .  A
C1609      C1614   1.397       .  A
C1609      F1627   1.358       .  S
C1610      C1615   1.484       .  S
C1610      C1611   1.409       .  A
C1611      C1612   1.401       .  A
C1611      F1616   1.358       .  S
C1612      C1613   1.405       .  A
C1612      F1628   1.358       .  S
C1613      C1614   1.407       .  A
C1614      F1617   1.358       .  S
C1615      C1618   1.403       .  A
C1615      C1622   1.407       .  A
C1618      C1619   1.393       .  A
C1618      F1623   1.358       .  S
C1619      C1620   1.411   1_556  A
C1619      F1625   1.358       .  S
C1620      C1621   1.411       .  A
C1621      C1622   1.405   1_554  A
C1622      F1626   1.358   1_556  S
C1629      C1630   1.406       .  A
C1629      C1634   1.405       .  A
C1629      F1647   1.357       .  S
C1630      C1635   1.485       .  S
C1630      C1631   1.404       .  A
C1631      C1632   1.398       .  A
C1631      F1636   1.358       .  S
C1632      C1633   1.411       .  A
C1632      F1648   1.358       .  S
C1633      C1634   1.410       .  A
C1634      F1637   1.357       .  S
C1635      C1638   1.406       .  A
C1635      C1642   1.402       .  A
C1638      C1639   1.406       .  A
C1638      F1643   1.358       .  S
C1639      C1640   1.412       .  A
C1639      F1645   1.357       .  S
C1640      C1641   1.412       .  A
C1641      C1642   1.396       .  A
C1641      F1644   1.358       .  S
C1642      F1646   1.358       .  S
C1649      C1650   1.408       .  A
C1649      C1654   1.397       .  A
C1650      C1651   1.403       .  A
C1651      C1652   1.397       .  A
C1651      F1656   1.358       .  S
C1652      C1653   1.413       .  A
C1652      F1668   1.358       .  S
C1653      C1654   1.407       .  A
C1654      F1657   1.358       .  S
C1655      C1658   1.404       .  A
C1655      C1662   1.409       .  A
C1658      C1659   1.395       .  A
C1658      F1663   1.358   1_556  S
C1659      C1660   1.408       .  A
C1659      F1665   1.358       .  S
C1660      C1661   1.406       .  A
C1661      C1662   1.403       .  A
C1661      F1664   1.358       .  S
C1662      F1666   1.358       .  S
C1669      C1670   1.403       .  A
C1669      C1674   1.393       .  A
C1669      F1687   1.358       .  S
C1670      C1675   1.480       .  S
C1670      C1671   1.409       .  A
C1671      C1672   1.401       .  A
C1671      F1676   1.358       .  S
C1672      C1673   1.406       .  A
C1672      F1688   1.358       .  S
C1673      C1674   1.407       .  A
C1674      F1677   1.358       .  S
C1675      C1678   1.408       .  A
C1675      C1682   1.402       .  A
C1678      C1679   1.401       .  A
C1678      F1683   1.358       .  S
C1679      C1680   1.408       .  A
C1679      F1685   1.358       .  S
C1680      C1681   1.411       .  A
C1681      C1682   1.394       .  A
C1681      F1684   1.358       .  S
C1682      F1686   1.358       .  S
C1689      C1690   1.406       .  A
C1689      C1694   1.404       .  A
C1689      F1707   1.358       .  S
C1690      C1695   1.479       .  S
C1690      C1691   1.401       .  A
C1691      C1692   1.395       .  A
C1691      F1696   1.358       .  S
C1692      C1693   1.410       .  A
C1692      F1708   1.358       .  S
C1693      C1694   1.409       .  A
C1694      F1697   1.358       .  S
C1695      C1698   1.405       .  A
C1695      C1702   1.402       .  A
C1698      C1699   1.403       .  A
C1698      F1703   1.358       .  S
C1699      C1700   1.409       .  A
C1699      F1705   1.357       .  S
C1700      C1701   1.411       .  A
C1701      C1702   1.397       .  A
C1701      F1704   1.358       .  S
C1702      F1706   1.358       .  S
C1709      C1710   1.407   1_565  A
C1709      C1714   1.401       .  A
C1709      F1727   1.358   1_565  S
C1710      C1715   1.480       .  S
C1710      C1711   1.403   1_545  A
C1711      C1712   1.393       .  A
C1711      F1716   1.358       .  S
C1712      C1713   1.408       .  A
C1712      F1728   1.358       .  S
C1713      C1714   1.408       .  A
C1714      F1717   1.358       .  S
C1715      C1718   1.405       .  A
C1715      C1722   1.403       .  A
C1718      C1719   1.399       .  A
C1718      F1723   1.358       .  S
C1719      C1720   1.408       .  A
C1719      F1725   1.357       .  S
C1720      C1721   1.413       .  A
C1721      C1722   1.397       .  A
C1721      F1724   1.358       .  S
C1722      F1726   1.359       .  S
C1729      C1730   1.408       .  A
C1729      C1734   1.401       .  A
C1729      F1747   1.358       .  S
C1730      C1735   1.483       .  S
C1730      C1731   1.405       .  A
C1731      C1732   1.397       .  A
C1731      F1736   1.358       .  S
C1732      C1733   1.408       .  A
C1732      F1748   1.358       .  S
C1733      C1734   1.405       .  A
C1734      F1737   1.358       .  S
C1735      C1738   1.406       .  A
C1735      C1742   1.403       .  A
C1738      C1739   1.401       .  A
C1738      F1743   1.358       .  S
C1739      C1740   1.409       .  A
C1739      F1745   1.357       .  S
C1740      C1741   1.412       .  A
C1741      C1742   1.398       .  A
C1741      F1744   1.358       .  S
C1742      F1746   1.358       .  S
C1749      C1750   1.408       .  A
C1749      C1754   1.401       .  A
C1749      F1767   1.358       .  S
C1750      C1755   1.483       .  S
C1750      C1751   1.403       .  A
C1751      C1752   1.396       .  A
C1751      F1756   1.358       .  S
C1752      C1753   1.410       .  A
C1752      F1768   1.358       .  S
C1753      C1754   1.408       .  A
C1754      F1757   1.358       .  S
C1755      C1758   1.403       .  A
C1755      C1762   1.408       .  A
C1758      C1759   1.396       .  A
C1758      F1763   1.358       .  S
C1759      C1760   1.410       .  A
C1759      F1765   1.358       .  S
C1760      C1761   1.407       .  A
C1761      C1762   1.401       .  A
C1761      F1764   1.358       .  S
C1762      F1766   1.358       .  S
C1769      C1770   1.406       .  A
C1769      C1774   1.402       .  A
C1769      F1787   1.358       .  S
C1770      C1775   1.477       .  S
C1770      C1771   1.402       .  A
C1771      F1776   1.358       .  S
C1772      F1788   1.358   1_554  S
C1773      C1774   1.408       .  A
C1774      F1777   1.358       .  S
C1775      C1778   1.401       .  A
C1775      C1782   1.405       .  A
C1778      C1779   1.395       .  A
C1778      F1783   1.358       .  S
C1779      C1780   1.413       .  A
C1779      F1785   1.358       .  S
C1780      C1781   1.409       .  A
C1781      C1782   1.401       .  A
C1781      F1784   1.357       .  S
C1782      F1786   1.358       .  S
C1789      C1790   1.405       .  A
C1790      C1795   1.479       .  S
C1790      C1791   1.401       .  A
C1791      C1792   1.398       .  A
C1791      F1796   1.358       .  S
C1792      F1808   1.358       .  S
C1793      C1794   1.406       .  A
C1794      F1797   1.358       .  S
C1795      C1798   1.404       .  A
C1795      C1802   1.400       .  A
C1798      C1799   1.406       .  A
C1798      F1803   1.357       .  S
C1799      C1800   1.411       .  A
C1799      F1805   1.357       .  S
C1800      C1801   1.414       .  A
C1801      C1802   1.396       .  A
C1801      F1804   1.358       .  S
C1802      F1806   1.358       .  S
C1809      C1810   1.403   1_655  A
C1809      C1814   1.396       .  A
C1809      F1827   1.358       .  S
C1810      C1815   1.488       .  S
C1810      C1811   1.409       .  A
C1811      C1812   1.406   1_455  A
C1811      F1816   1.358       .  S
C1812      C1813   1.409       .  A
C1812      F1828   1.358       .  S
C1813      C1814   1.411       .  A
C1814      F1817   1.358       .  S
C1815      C1818   1.404       .  A
C1815      C1822   1.409       .  A
C1818      C1819   1.398       .  A
C1818      F1823   1.358       .  S
C1819      C1820   1.412       .  A
C1819      F1825   1.358       .  S
C1820      C1821   1.408       .  A
C1821      C1822   1.403       .  A
C1821      F1824   1.358       .  S
C1822      F1826   1.358       .  S
C1829      C1830   1.404       .  A
C1829      C1834   1.401       .  A
C1829      F1847   1.358       .  S
C1830      C1835   1.476       .  S
C1830      C1831   1.401       .  A
C1831      C1832   1.396       .  A
C1831      F1836   1.358       .  S
C1832      C1833   1.412       .  A
C1832      F1848   1.358       .  S
C1833      C1834   1.411       .  A
C1834      F1837   1.358       .  S
C1835      C1838   1.400       .  A
C1835      C1842   1.405       .  A
C1838      C1839   1.394       .  A
C1838      F1843   1.358       .  S
C1839      C1840   1.411       .  A
C1839      F1845   1.358       .  S
C1840      C1841   1.409       .  A
C1841      C1842   1.403       .  A
C1841      F1844   1.357       .  S
C1842      F1846   1.358       .  S
C1849      C1850   1.402       .  A
C1849      C1854   1.398       .  A
C1849      F1867   1.358       .  S
C1850      C1855   1.486       .  S
C1850      C1851   1.407       .  A
C1851      C1852   1.406       .  A
C1851      F1856   1.358       .  S
C1852      C1853   1.410       .  A
C1852      F1868   1.357       .  S
C1853      C1854   1.412       .  A
C1854      F1857   1.358       .  S
C1855      C1858   1.408       .  A
C1855      C1862   1.401       .  A
C1858      C1859   1.406       .  A
C1858      F1863   1.358       .  S
C1859      C1860   1.410       .  A
C1859      F1865   1.357       .  S
C1860      C1861   1.413       .  A
C1861      C1862   1.398       .  A
C1861      F1864   1.358       .  S
C1862      F1866   1.358       .  S
C1869      C1870   1.410       .  A
C1869      C1874   1.403       .  A
C1869      F1887   1.358       .  S
C1870      C1875   1.489       .  S
C1870      C1871   1.404       .  A
C1871      C1872   1.397       .  A
C1871      F1876   1.358       .  S
C1872      C1873   1.410       .  A
C1872      F1888   1.358       .  S
C1873      C1874   1.407       .  A
C1874      F1877   1.358       .  S
C1875      C1878   1.410       .  A
C1875      C1882   1.404       .  A
C1878      C1879   1.403       .  A
C1878      F1883   1.358       .  S
C1879      C1880   1.406       .  A
C1879      F1885   1.357       .  S
C1880      C1881   1.412       .  A
C1881      C1882   1.398       .  A
C1881      F1884   1.358       .  S
C1882      F1886   1.358       .  S
C1889      C1890   1.403       .  A
C1889      C1894   1.398       .  A
C1889      F1907   1.358       .  S
C1890      C1895   1.473       .  S
C1890      C1891   1.402       .  A
C1891      C1892   1.398       .  A
C1891      F1896   1.358       .  S
C1892      C1893   1.410       .  A
C1893      C1894   1.407       .  A
C1894      F1897   1.357       .  S
C1895      C1898   1.404       .  A
C1895      C1902   1.402       .  A
C1898      C1899   1.399       .  A
C1898      F1903   1.358       .  S
C1899      C1900   1.406       .  A
C1899      F1905   1.358       .  S
C1900      C1901   1.407       .  A
C1901      C1902   1.396       .  A
C1901      F1904   1.358       .  S
C1902      F1906   1.358       .  S
