geometry optimzed in LAMMPS
_audit_creation_date              2020-12-01 
_audit_creation_method            'lammps2cif' 
_symmetry_space_group_name_H-M    'P1' 
_symmetry_Int_Tables_number       1 
_symmetry_cell_setting            triclinic 
loop_ 
_symmetry_equiv_pos_as_xyz 
  x,y,z 
_cell_length_a                    24.58386127 
_cell_length_b                    24.39943473330768 
_cell_length_c                    47.955573086933555 
_cell_angle_alpha                 91.51733985228964 
_cell_angle_beta                  88.27080536323606 
_cell_angle_gamma                 90.67710922228953 
loop_ 
_atom_site_label 
_atom_site_type_symbol 
_atom_site_fract_x 
_atom_site_fract_y 
_atom_site_fract_z 
_atom_site_charge 
C1          C  0.21307729  0.25631838  0.10178751     0.30500
C2          C  0.26765216  0.31482832  0.14077666     0.30500
C3          C  0.18502933  0.31110036  0.11189121    -0.05700
C4          C  0.21963941  0.22567923  0.12989355    -0.06500
C5          C  0.27169094  0.27531975  0.09296709    -0.06400
C6          C  0.21362586  0.34283573  0.13096350    -0.05700
C7          C  0.24943095  0.25558937  0.14868050    -0.06500
C8          C  0.30069295  0.30515655  0.11226119    -0.06400
C9          C  0.18373095  0.39238678  0.13426651    -0.31800
N10         N  0.13579618  0.38930548  0.12001319     0.14700
C11         C  0.13699171  0.33916268  0.10663809    -0.31800
H12         H  0.10455775  0.32378090  0.09373554     0.16700
C13         C  0.25588975  0.22362398  0.17211071    -0.30700
N14         N  0.22757399  0.17578384  0.16991083     0.13500
C15         C  0.20457338  0.17683682  0.14398203    -0.30700
C16         C  0.35135724  0.31716726  0.09830371    -0.31000
N17         N  0.35325263  0.29452586  0.07151085     0.14000
H18         H  0.38411608  0.34135121  0.10708180     0.16600
C19         C  0.30409806  0.26923245  0.06861393    -0.31000
H20         H  0.29250939  0.24707790  0.04984606     0.16600
H21         H  0.17773519  0.14504157  0.13606735     0.16600
H22         H  0.19640237  0.42832407  0.14613686     0.16700
H23         H  0.27985510  0.23477803  0.18993812     0.16600
N24         N  0.06573327  0.53018758  0.11717054    -0.36100
N25         N  0.98803193  0.43643984  0.11560364    -0.56700
N26         N  0.89424498  0.51554169  0.11421379    -0.36100
N27         N  0.97265033  0.60875123  0.10954244    -0.56700
C28         C  0.10116339  0.48696440  0.11411945     0.27500
C29         C  0.09254321  0.57739175  0.10951035     0.27500
C30         C  0.86776838  0.46620141  0.11027941     0.27500
C31         C  0.85965640  0.55720586  0.10806156     0.27500
C32         C  0.03448098  0.40911543  0.12180505     0.36100
C33         C  0.94484561  0.40102622  0.11937930     0.36100
C34         C  0.01492352  0.64491822  0.11366350     0.36100
C35         C  0.92507893  0.63716790  0.11344911     0.36100
C36         C  0.15081884  0.50734091  0.10441168    -0.21400
C37         C  0.14525572  0.56332515  0.10128384    -0.21400
C38         C  0.81588840  0.47704024  0.10136754    -0.21400
C39         C  0.81084554  0.53347610  0.09999996    -0.21400
C40         C  0.02004110  0.35655694  0.12977549    -0.22500
C41         C  0.96432224  0.35138647  0.12802420    -0.22500
C42         C  0.99384555  0.69607360  0.12056825    -0.22500
C43         C  0.93779680  0.69120145  0.12056496    -0.22500
C44         C  0.09008529  0.42945939  0.11934924    -0.17800
C45         C  0.07236479  0.63338001  0.11074657    -0.17800
C46         C  0.87025784  0.61603026  0.10992507    -0.17800
C47         C  0.88788750  0.41150730  0.11504299    -0.17800
H48         H  0.18709323  0.48409385  0.09920885     0.15100
H49         H  0.17641330  0.59056604  0.09310415     0.15100
H50         H  0.78469905  0.44732706  0.09593878     0.15100
H51         H  0.77516285  0.55441268  0.09331582     0.15100
H52         H  0.04657443  0.32498434  0.13673504     0.13400
H53         H  0.94080156  0.31518888  0.13330845     0.13400
H54         H  0.01636614  0.73317611  0.12564480     0.13400
H55         H  0.90974434  0.72396206  0.12579382     0.13400
H56         H  0.02660066  0.52836200  0.12597599     0.26600
H57         H  0.93253380  0.52049745  0.12256700     0.26600
C58         C  0.75086113  0.79041693  0.09117389     0.30500
C59         C  0.68583593  0.72606284  0.12278335     0.30500
C60         C  0.77669483  0.73312207  0.09796648    -0.05700
C61         C  0.73551342  0.81347350  0.12067059    -0.06500
C62         C  0.69708314  0.77287519  0.07743598    -0.06400
C63         C  0.74306370  0.70004326  0.11469034    -0.05700
C64         C  0.70319653  0.78122818  0.13731517    -0.06500
C65         C  0.66405981  0.74140807  0.09380382    -0.06400
C66         C  0.77401009  0.65379542  0.12094037    -0.31800
N67         N  0.82448516  0.65569639  0.10777966     0.14700
C68         C  0.82539733  0.70373317  0.09334085    -0.31800
H69         H  0.85961871  0.71654855  0.08031372     0.16700
C70         C  0.70278801  0.80738542  0.16396176    -0.30700
N71         N  0.73121243  0.85622198  0.16305255     0.13500
C72         C  0.75248524  0.85870722  0.13661249    -0.30700
C73         C  0.61657725  0.73063382  0.07898707    -0.31000
N74         N  0.61908993  0.75571231  0.05400953     0.14000
H75         H  0.58223675  0.70593925  0.08588020     0.16600
C76         C  0.66938633  0.78058553  0.05257799    -0.31000
H77         H  0.68455517  0.80375508  0.03500073     0.16600
H78         H  0.77975777  0.89088072  0.12944995     0.16600
H79         H  0.76101466  0.62184482  0.13495391     0.16700
H80         H  0.68368049  0.79143916  0.18271117     0.16600
N81         N  0.21561958  0.94900964  0.24476771    -0.36100
N82         N  0.21769443  0.03248260  0.20014114    -0.56700
N83         N  0.23129555  0.12151680  0.24413300    -0.36100
N84         N  0.21710593  0.03883763  0.28904550    -0.56700
C85         C  0.20631037  0.91677237  0.22125235     0.27500
C86         C  0.20045065  0.92054960  0.26828397     0.27500
C87         C  0.21993110  0.15126202  0.22115012     0.27500
C88         C  0.22593034  0.15502873  0.26750007     0.27500
C89         C  0.22852957  0.98618123  0.18427309     0.36100
C90         C  0.23043360  0.07661669  0.18402305     0.36100
C91         C  0.22080156  0.99357894  0.30534962     0.36100
C92         C  0.23458148  0.08377712  0.30431879     0.36100
C93         C  0.18436489  0.86738545  0.23014040    -0.21400
C94         C  0.18032760  0.86986203  0.25919084    -0.21400
C95         C  0.20645325  0.20395276  0.23044906    -0.21400
C96         C  0.21090444  0.20645708  0.25917294    -0.21400
C97         C  0.24924081  0.00153054  0.15837130    -0.22500
C98         C  0.25012871  0.05803850  0.15818540    -0.22500
C99         C  0.24119531  0.01015730  0.33086483    -0.22500
C100        C  0.25026178  0.06616179  0.33012228    -0.22500
C101        C  0.21795554  0.93017045  0.19203656    -0.17800
C102        C  0.20714360  0.93721971  0.29770032    -0.17800
C103        C  0.23414820  0.14088548  0.29618155    -0.17800
C104        C  0.22442127  0.13362657  0.19191902    -0.17800
H105        H  0.17184979  0.83299607  0.21704570     0.15100
H106        H  0.16417846  0.83750230  0.27214066     0.15100
H107        H  0.19399428  0.23754324  0.21794548     0.15100
H108        H  0.20249628  0.24207447  0.27244406     0.16300
H109        H  0.26336107  0.97493614  0.14132991     0.13400
H110        H  0.26532825  0.08257587  0.14114357     0.13400
H111        H  0.25058534  0.98441705  0.34804272     0.13400
H112        H  0.26773536  0.09080432  0.34668376     0.13400
H113        H  0.23559358  0.98678140  0.24478901     0.26600
H114        H  0.24606180  0.08173037  0.24375740     0.26600
N115        N  0.75567548  0.00038749  0.19187379    -0.36100
N116        N  0.75911948  0.08794438  0.23543455    -0.56700
N117        N  0.75752514  0.00305379  0.28014654    -0.36100
N118        N  0.74276239  0.91654542  0.23661045    -0.56700
C119        C  0.74841875  0.04576278  0.17625495     0.27500
C120        C  0.73475998  0.95598399  0.17770992     0.27500
C121        C  0.74806375  0.05001318  0.29572368     0.27500
C122        C  0.74300834  0.95890237  0.29602870     0.27500
C123        C  0.77217145  0.11789951  0.21219440     0.36100
C124        C  0.76867405  0.12028686  0.25872236     0.36100
C125        C  0.74874941  0.88387622  0.21315010     0.36100
C126        C  0.75328810  0.88509795  0.25896735     0.36100
C127        C  0.72196581  0.03001900  0.15221856    -0.21400
C128        C  0.71297433  0.97405684  0.15323543    -0.21400
C129        C  0.72697819  0.03502378  0.32165705    -0.21400
C130        C  0.72402920  0.97838285  0.32186398    -0.21400
C131        C  0.79067545  0.16918372  0.22111482    -0.22500
C132        C  0.78822850  0.17075042  0.25002377    -0.22500
C133        C  0.76431377  0.83209917  0.22067582    -0.22500
C134        C  0.76745257  0.83291923  0.24936275    -0.22500
C135        C  0.76448007  0.10115720  0.18308781    -0.17800
C136        C  0.73789908  0.89916416  0.18515284    -0.17800
C137        C  0.74657932  0.90150037  0.28796682    -0.17800
C138        C  0.75894840  0.10604693  0.28775157    -0.17800
H139        H  0.70913456  0.05628121  0.13587363     0.15100
H140        H  0.69217666  0.94957285  0.13764637     0.15100
H141        H  0.71354516  0.06196519  0.33869219     0.15100
H142        H  0.70802565  0.95453545  0.33900208     0.15100
H143        H  0.80492511  0.20237549  0.20818557     0.13400
H144        H  0.80059683  0.20519524  0.26310405     0.13400
H145        H  0.77321552  0.79726590  0.20694495     0.13400
H146        H  0.77923389  0.79872003  0.26165665     0.13400
H147        H  0.77790057  0.99905687  0.20998847     0.26600
H148        H  0.77649713  0.00119175  0.26045557     0.26600
C149        C  0.19154178  0.81157678  0.38941210     0.30500
C150        C  0.24788928  0.75839206  0.34898557     0.30500
C151        C  0.16391265  0.75559169  0.37915100    -0.05700
C152        C  0.19812954  0.84445054  0.36098704    -0.06500
C153        C  0.25030659  0.79336624  0.39670225    -0.06400
C154        C  0.19401531  0.72723276  0.35859951    -0.05700
C155        C  0.22732164  0.81532773  0.34103505    -0.06500
C156        C  0.27860421  0.76520976  0.37660682    -0.06400
C157        C  0.16678752  0.67630858  0.35437065    -0.31800
N158        N  0.11927587  0.67372238  0.36999924     0.14700
C159        C  0.11736253  0.72248612  0.38509954    -0.31800
H160        H  0.08479246  0.73306071  0.39987837     0.16700
C161        C  0.23164846  0.84533093  0.31658414    -0.30700
N162        N  0.20618426  0.89419324  0.31971593     0.13500
C163        C  0.18457921  0.89371208  0.34690519    -0.30700
C164        C  0.32661507  0.74699151  0.38889082    -0.31000
N165        N  0.32867984  0.76502463  0.41632336     0.14000
H166        H  0.35707610  0.72139388  0.37851056     0.16600
C167        C  0.28180356  0.79373115  0.42079752    -0.31000
H168        H  0.27078049  0.81346642  0.44056078     0.16600
H169        H  0.15994254  0.92644107  0.35587128     0.16600
H170        H  0.18098845  0.64219921  0.34142795     0.16700
H171        H  0.25341649  0.83230971  0.29766096     0.16600
N172        N  0.07190819  0.52283007  0.36898344    -0.36100
N173        N  0.97880570  0.60198793  0.36787060    -0.56700
N174        N  0.90080543  0.50817865  0.36413367    -0.36100
N175        N  0.99257991  0.42943709  0.37136827    -0.56700
C176        C  0.09792146  0.57181887  0.37483277     0.27500
C177        C  0.10497315  0.48043659  0.37594415     0.27500
C178        C  0.86565636  0.55106812  0.36813840     0.27500
C179        C  0.87371279  0.46096659  0.37116858     0.27500
C180        C  0.02213095  0.63774524  0.36499574     0.36100
C181        C  0.93226629  0.62925620  0.36156848     0.36100
C182        C  0.04020455  0.40130520  0.36720373     0.36100
C183        C  0.95062105  0.39397236  0.36539346     0.36100
C184        C  0.14789554  0.56000655  0.38580974    -0.21400
C185        C  0.15218869  0.50332075  0.38660855    -0.21400
C186        C  0.81618687  0.53073904  0.37811413    -0.21400
C187        C  0.82159074  0.47469600  0.38045683    -0.21400
C188        C  0.00265079  0.68768449  0.35676973    -0.22500
C189        C  0.94679718  0.68234296  0.35450042    -0.22500
C190        C  0.02798395  0.34833029  0.35808622    -0.22500
C191        C  0.97202298  0.34370218  0.35704086    -0.22500
C192        C  0.07898854  0.62707758  0.37009948    -0.17800
C193        C  0.09453437  0.42171375  0.37239155    -0.17800
C194        C  0.89318426  0.40540624  0.36809094    -0.17800
C195        C  0.87653791  0.60816371  0.36318442    -0.17800
H196        H  0.17810077  0.58932437  0.39297967     0.15100
H197        H  0.18620986  0.48154473  0.39460551     0.15100
H198        H  0.78027339  0.55404791  0.38399964     0.15100
H199        H  0.79095639  0.44718723  0.38891306     0.15100
H200        H  0.02624490  0.72433797  0.35242272     0.13400
H201        H  0.92011484  0.71422697  0.34802471     0.13400
H202        H  0.05641346  0.31626382  0.35220347     0.13400
H203        H  0.94981747  0.30743676  0.35029404     0.13400
H204        H  0.03533153  0.51856279  0.35875834     0.26600
H205        H  0.93958272  0.51037372  0.35487914     0.26600
C206        C  0.71986421  0.28353527  0.35082350     0.30500
C207        C  0.78299378  0.22087905  0.38110312     0.30500
C208        C  0.77511495  0.31057931  0.35869589    -0.05700
C209        C  0.69326286  0.26638555  0.37895167    -0.06500
C210        C  0.73821185  0.22819418  0.33585107    -0.06400
C211        C  0.80668007  0.27922300  0.37497970    -0.05700
C212        C  0.72408610  0.23266714  0.39481045    -0.06500
C213        C  0.76887957  0.19594237  0.35182929    -0.06400
C214        C  0.85401538  0.31025646  0.38043147    -0.31800
N215        N  0.85271509  0.35953592  0.36727333     0.14700
C216        C  0.80488635  0.35875008  0.35335384    -0.31800
H217        H  0.79284323  0.39094385  0.33985467     0.16700
C218        C  0.68916317  0.22137836  0.41823962    -0.30700
N219        N  0.64148430  0.25043481  0.41796468     0.13500
C220        C  0.64402308  0.27753074  0.39342385    -0.30700
C221        C  0.78060995  0.14786188  0.33594125    -0.31000
N222        N  0.75878327  0.14992172  0.31006478     0.14000
H223        H  0.80358616  0.11353922  0.34292936     0.16600
C224        C  0.73400957  0.19980684  0.30979557    -0.31000
H225        H  0.71419038  0.21424003  0.29166426     0.16600
H226        H  0.61302266  0.30496617  0.38670229     0.16600
H227        H  0.88688758  0.29752774  0.39320772     0.16700
H228        H  0.69689252  0.19343125  0.43454703     0.16600
N229        N  0.47204561  0.74185832  0.44270770    -0.36100
N230        N  0.55718238  0.74012920  0.48544157    -0.56700
N231        N  0.47342335  0.75439141  0.02844432    -0.36100
N232        N  0.38705313  0.75944168  0.48925487    -0.56700
C233        C  0.51824612  0.75022681  0.42651440     0.27500
C234        C  0.42829522  0.75963062  0.42853615     0.27500
C235        C  0.51994494  0.76579096  0.04260292     0.27500
C236        C  0.42916677  0.76827381  0.04530905     0.27500
C237        C  0.58765152  0.72715053  0.46171665     0.36100
C238        C  0.59033411  0.74281715  0.00459099     0.36100
C239        C  0.35565928  0.74931219  0.46643103     0.36100
C240        C  0.35751322  0.75273359  0.00988792     0.36100
C241        C  0.50331238  0.77394620  0.40198316    -0.21400
C242        C  0.44736135  0.78001993  0.40331569    -0.21400
C243        C  0.50474634  0.78727496  0.06876007    -0.21400
C244        C  0.44831023  0.78873135  0.07044917    -0.21400
C245        C  0.63662906  0.70563475  0.46956996    -0.22500
C246        C  0.63962150  0.72033951  0.99579250    -0.22500
C247        C  0.30391298  0.73406364  0.47582387    -0.22500
C248        C  0.30720091  0.73361731  0.00148777    -0.22500
C249        C  0.57353111  0.73704580  0.43308365    -0.17800
C250        C  0.37153455  0.75679788  0.43727410    -0.17800
C251        C  0.37211789  0.76246850  0.03864050    -0.17800
C252        C  0.57567175  0.75526053  0.03327081    -0.17800
H253        H  0.53000436  0.78705165  0.38503721     0.15100
H254        H  0.42372506  0.79889654  0.38765007     0.15100
H255        H  0.53152156  0.80127303  0.08503087     0.15100
H256        H  0.42431963  0.80426582  0.08813966     0.15100
H257        H  0.66930390  0.69062966  0.45591387     0.13400
H258        H  0.67203093  0.70703998  0.00870731     0.13400
H259        H  0.27002806  0.72184555  0.46312473     0.13400
H260        H  0.27318920  0.72099469  0.01474640     0.13400
H261        H  0.46988399  0.72158583  0.46155568     0.26600
H262        H  0.47217103  0.73425305  0.00907403     0.26600
N263        N  0.58632927  0.25707976  0.49334508    -0.36100
N264        N  0.49879945  0.26767521  0.45255771    -0.56700
N265        N  0.41671467  0.27812643  0.50023541    -0.36100
N266        N  0.49820894  0.28774107  0.03929194    -0.56700
C267        C  0.61630169  0.26453045  0.46913413     0.27500
C268        C  0.61389759  0.27807573  0.01515319     0.27500
C269        C  0.38507269  0.28791443  0.47775543     0.27500
C270        C  0.38384914  0.30190409  0.02053896     0.27500
C271        C  0.54150081  0.25404941  0.43462449     0.36100
C272        C  0.45151348  0.26198076  0.43820101     0.36100
C273        C  0.54212718  0.27263407  0.05405151     0.36100
C274        C  0.45286887  0.28311045  0.05650695     0.36100
C275        C  0.66848310  0.28086524  0.47607922    -0.21400
C276        C  0.66565379  0.29239023  0.00523615    -0.21400
C277        C  0.33787469  0.31312112  0.48770589    -0.21400
C278        C  0.33568128  0.32461309  0.01226537    -0.21400
C279        C  0.52082682  0.23956494  0.40887122    -0.22500
C280        C  0.46477002  0.24432734  0.41111396    -0.22500
C281        C  0.52387728  0.25796288  0.08050485    -0.22500
C282        C  0.46826957  0.26494248  0.08213671    -0.22500
C283        C  0.59896321  0.25566820  0.44084532    -0.17800
C284        C  0.59856453  0.27309954  0.04448353    -0.17800
C285        C  0.39762693  0.29439453  0.04943092    -0.17800
C286        C  0.39664096  0.27446887  0.44845928    -0.17800
H287        H  0.70183436  0.29148817  0.46194104     0.15100
H288        H  0.69975156  0.30574689  0.01746728     0.15100
H289        H  0.30466641  0.32688387  0.47544489     0.15100
H290        H  0.30361947  0.34170904  0.02565697     0.15100
H291        H  0.54355677  0.22609741  0.39032896     0.13400
H292        H  0.43696861  0.23518118  0.39452419     0.13400
H293        H  0.54756109  0.24178482  0.09683989     0.13400
H294        H  0.44215642  0.25555956  0.09996675     0.13400
H295        H  0.54697366  0.24101880  0.49485833     0.26600
H296        H  0.45260347  0.25593814  0.49938220     0.26600
C297        C  0.75474960  0.78075685  0.37689957     0.30500
C298        C  0.69780547  0.71996769  0.33977681     0.30500
C299        C  0.78004701  0.72414688  0.36860623    -0.05700
C300        C  0.69654834  0.76332014  0.38772009    -0.06500
C301        C  0.74612493  0.80870049  0.34885810    -0.06400
C302        C  0.75195693  0.69203563  0.34964470    -0.05700
C303        C  0.66639424  0.73255891  0.36879413    -0.06500
C304        C  0.71665124  0.77819221  0.33036482    -0.06400
C305        C  0.78306558  0.64306216  0.34675759    -0.31800
N306        N  0.82991991  0.64679012  0.36195866     0.14700
C307        C  0.82611683  0.69542304  0.37622688    -0.31800
H308        H  0.85516810  0.70866706  0.39152926     0.16700
C309        C  0.61754191  0.71805816  0.38368307    -0.30700
N310        N  0.61734750  0.73898981  0.41069966     0.13500
C311        C  0.66669413  0.76444629  0.41316227    -0.30700
C312        C  0.71226993  0.80980960  0.30651122    -0.31000
N313        N  0.74014995  0.85848083  0.30938203     0.14000
H314        H  0.69006524  0.79770659  0.28817095     0.16600
C315        C  0.76104507  0.85775332  0.33563170    -0.31000
H316        H  0.78612662  0.89007309  0.34453234     0.16600
H317        H  0.68075308  0.78041853  0.43277962     0.16600
H318        H  0.77172051  0.60670368  0.33491069     0.16700
H319        H  0.58513574  0.69240985  0.37561740     0.16600
C320        C  0.78073035  0.22817247  0.09239336     0.30500
C321        C  0.71994717  0.27777467  0.13253232     0.30500
C322        C  0.80615349  0.28308574  0.10466389    -0.05700
C323        C  0.72195170  0.24377376  0.08450466    -0.06500
C324        C  0.77199135  0.19302896  0.11989884    -0.06400
C325        C  0.77372136  0.31031741  0.12467395    -0.05700
C326        C  0.69221822  0.27131912  0.10431695    -0.06500
C327        C  0.74183187  0.22125294  0.13999886    -0.06400
C328        C  0.80022148  0.36101865  0.13015316    -0.31800
N329        N  0.84874853  0.36434521  0.11539351     0.14700
C330        C  0.85300497  0.31582208  0.10045618    -0.31800
H331        H  0.88722998  0.30541786  0.08671361     0.16700
C332        C  0.64396815  0.28732283  0.09204060    -0.30700
N333        N  0.64219620  0.26723275  0.06505514     0.13500
C334        C  0.69012128  0.23991601  0.06073246    -0.30700
C335        C  0.73832364  0.19151311  0.16433119    -0.31000
N336        N  0.76431426  0.14326690  0.16093125     0.14000
H337        H  0.71676788  0.20420628  0.18338240     0.16600
C338        C  0.78511547  0.14338448  0.13355713    -0.31000
H339        H  0.80889829  0.11035423  0.12416692     0.16600
H340        H  0.70172531  0.21866010  0.04143080     0.16600
H341        H  0.78486168  0.39437897  0.14325621     0.16700
H342        H  0.61296447  0.31255743  0.10220628     0.16600
C343        C  0.28060072  0.31616416  0.36114632     0.30500
C344        C  0.21645685  0.24859618  0.39145655     0.30500
C345        C  0.22368862  0.34125369  0.37034189    -0.05700
C346        C  0.26260368  0.26165290  0.34501138    -0.06500
C347        C  0.30446130  0.29699608  0.38905095    -0.06400
C348        C  0.19006103  0.30648738  0.38630211    -0.05700
C349        C  0.22860231  0.22914135  0.36065048    -0.06500
C350        C  0.27235615  0.26366633  0.40442401    -0.06400
C351        C  0.13883197  0.33249317  0.38819052    -0.31800
N352        N  0.13999526  0.38175461  0.37475681     0.14700
C353        C  0.19115561  0.38535414  0.36273467    -0.31800
H354        H  0.20283817  0.41619719  0.34789339     0.16700
C355        C  0.21223655  0.18448075  0.34381405    -0.30700
N356        N  0.23790506  0.18529475  0.31825362     0.13500
C357        C  0.26770250  0.23372268  0.31853329    -0.30700
C358        C  0.30175509  0.25153883  0.42856731    -0.31000
N359        N  0.35193302  0.27700794  0.42800524     0.14000
H360        H  0.28748422  0.22520926  0.44512063     0.16600
C361        C  0.35319670  0.30498859  0.40370051    -0.31000
H362        H  0.38774985  0.32952702  0.39699963     0.16600
H363        H  0.29187024  0.24779854  0.30084235     0.16600
H364        H  0.10213124  0.31540036  0.39736854     0.16700
H365        H  0.18399313  0.15256117  0.35026699     0.16600
C366        C  0.24538132  0.74901681  0.12999061     0.30500
C367        C  0.19251466  0.81644267  0.09715021     0.30500
C368        C  0.18849632  0.72862969  0.12107535    -0.05700
C369        C  0.23466903  0.80712365  0.14354852    -0.06500
C370        C  0.27721465  0.76179353  0.10198406    -0.06400
C371        C  0.16068036  0.76089951  0.10337354    -0.05700
C372        C  0.20624212  0.84058209  0.12711176    -0.06500
C373        C  0.24888578  0.79431491  0.08458968    -0.06400
C374        C  0.11414652  0.72813167  0.09645883    -0.31800
N375        N  0.11256698  0.67975909  0.11093111     0.14700
C376        C  0.15816643  0.68115339  0.12616202    -0.31800
H377        H  0.16952172  0.64885695  0.13981506     0.16700
C378        C  0.19573738  0.88886223  0.14340178    -0.30700
N379        N  0.21812683  0.88651701  0.16931901     0.13500
C380        C  0.24323988  0.83665997  0.16900981    -0.30700
C381        C  0.27989910  0.79582419  0.05921527    -0.31000
N382        N  0.32820545  0.76849696  0.06101687     0.14000
H383        H  0.26782127  0.81620034  0.04064139     0.16600
C384        C  0.32654688  0.74799593  0.08751623    -0.31000
H385        H  0.35840428  0.72344329  0.09570876     0.16600
H386        H  0.26653426  0.82265597  0.18617740     0.16600
H387        H  0.08490887  0.73752656  0.08099325     0.16700
H388        H  0.17285386  0.92343854  0.13666007     0.16600
O389        O  0.08736716  0.16535746  0.00378982    -0.74800
O390        O  0.15912074  0.11113278  0.99217182    -0.53700
C391        C  0.13841093  0.15442055  0.00321005     0.78900
O392        O  0.91051447  0.99331767  0.06153801    -0.59400
O393        O  0.85988768  0.97814455  0.02301344    -0.52400
C394        C  0.87006161  0.97270170  0.04880044     0.70900
O395        O  0.07933631  0.04574168  0.07204080    -0.74000
O396        O  0.14801113  0.04632840  0.04108249    -0.54500
C397        C  0.12544875  0.02795306  0.06325021     0.76900
O398        O  0.90922781  0.15664162  0.98971410    -0.59100
O399        O  0.85311386  0.08209347  0.98754527    -0.52200
C400        C  0.86236714  0.13284582  0.99276635     0.73500
Zr401      Zr  0.00425509  0.12974912  0.98387687     2.54700
O402        O  0.99782153  0.22677461  0.99670233    -0.79700
O403        O  0.01442514  0.17678380  0.93978278    -0.93100
Zr404      Zr  0.99595360  0.03136024  0.04699429     2.64700
O405        O  0.96670371  0.11990763  0.06677203    -0.98000
O406        O  0.98635995  0.00703374  0.09587735    -0.80100
O407        O  0.05330485  0.08619683  0.01898333    -0.83500
O408        O  0.94708099  0.07699496  0.01426483    -2.18200
O409        O  0.97199814  0.06346305  0.41319341    -0.66900
O410        O  0.89930326  0.01105972  0.42521886    -0.51400
C411        C  0.92136117  0.05071436  0.41206308     0.71900
O412        O  0.10557364  0.87414049  0.50879229    -0.59800
O413        O  0.16708971  0.94037632  0.50831674    -0.51700
C414        C  0.15114487  0.89268817  0.50017171     0.73700
O415        O  0.94456230  0.84519400  0.46285549    -0.71200
O416        O  0.88339027  0.91201202  0.45461564    -0.49800
C417        C  0.90005212  0.86298306  0.45330559     0.75100
O418        O  0.14403312  0.02616600  0.44258983    -0.66500
O419        O  0.17350710  0.05757600  0.48349364    -0.53700
C420        C  0.17032924  0.06154683  0.45722651     0.73500
Zr421      Zr  0.04559227  0.02176027  0.43687956     2.77500
O422        O  0.04912237  0.95655109  0.39753159    -0.97200
O423        O  0.08935337  0.07955552  0.40189652    -0.78100
Zr424      Zr  0.02332979  0.88940833  0.48347779     2.70100
O425        O  0.05377998  0.83593432  0.44294255    -0.79300
O426        O  0.00743611  0.80344769  0.50748022    -0.98400
Zr427      Zr  0.10129451  0.01398864  0.50904880     2.21500
Zr428      Zr  0.91300063  0.99457434  0.47369887     2.11100
O429        O  0.98722104  0.94947157  0.45018656    -2.47100
O430        O  0.08418912  0.95963659  0.46779100    -0.79100
O431        O  0.97574628  0.05972363  0.46329108    -0.71300
O432        O  0.04227736  0.94182916  0.52530589    -2.32200
O433        O  0.06028216  0.07485012  0.47741246    -2.28500
O434        O  0.94992828  0.93413772  0.50546716    -0.73100
H435        H  0.91982121  0.09506820  0.02585850     0.78900
H436        H  0.05669994  0.92104652  0.54015629     0.80000
H437        H  0.97619621  0.93001841  0.43349928     0.82300
H438        H  0.08123718  0.10567409  0.47121540     0.79900
H439        H  0.97496347  0.04094438  0.10611125     0.42900
H440        H  0.01461071  0.77425848  0.49317367     0.41900
H441        H  0.05507174  0.86216479  0.42754786     0.41500
H442        H  0.03559070  0.97721344  0.38169922     0.39500
H443        H  0.08659629  0.11727427  0.40986715     0.42600
H444        H  0.98348780  0.20240457  0.93975361     0.37400
H445        H  0.98296433  0.22744593  0.01613102     0.43500
H446        H  0.93185350  0.11191900  0.07686300     0.39900
H447        H  0.08849087  0.95209959  0.39324834     0.44900
H448        H  0.00580017  0.14860901  0.92531333     0.43600
H449        H  0.99267520  0.12858524  0.08167761     0.43700
H450        H  0.03685913  0.80032466  0.52096065     0.44100
O451        O  0.46178962  0.46974034  0.32531712    -0.74800
O452        O  0.46931606  0.39097432  0.29950958    -0.53700
C453        C  0.46056958  0.41760225  0.32242301     0.78900
O454        O  0.31741647  0.55652553  0.21274804    -0.59400
O455        O  0.37835342  0.62661898  0.20478399    -0.52400
C456        C  0.33154957  0.60346025  0.20362288     0.70900
O457        O  0.35993259  0.39605200  0.25505429    -0.74000
O458        O  0.42400528  0.33613235  0.24790771    -0.54500
C459        C  0.37561212  0.35078336  0.24389763     0.76900
O460        O  0.40797794  0.62551335  0.29265096    -0.59100
O461        O  0.41328496  0.66721075  0.25045728    -0.52200
C462        C  0.39543928  0.66225871  0.27556227     0.73500
Zr463      Zr  0.45343503  0.53992817  0.29213512     2.54700
O464        O  0.38966209  0.54964184  0.33186006    -0.79700
O465        O  0.51865496  0.59021406  0.32046601    -0.93100
Zr466      Zr  0.36620642  0.47920582  0.22843437     2.64700
O467        O  0.27207257  0.47913144  0.24599643    -0.98000
O468        O  0.33496942  0.44122393  0.18452652    -0.80100
O469        O  0.41859684  0.46835943  0.26630009    -0.83500
O470        O  0.40287026  0.55487724  0.25201658    -2.18200
O471        O  0.59843055  0.62193509  0.22750447    -0.66900
O472        O  0.52806698  0.67480119  0.23672771    -0.51400
C473        C  0.57784194  0.66297076  0.24052578     0.71900
O474        O  0.55718652  0.39582477  0.18904946    -0.59800
O475        O  0.53260861  0.34335492  0.22574492    -0.51700
C476        C  0.56265200  0.35456598  0.20466096     0.73700
O477        O  0.50979690  0.55029586  0.15173673    -0.71200
O478        O  0.48472681  0.62844146  0.17543590    -0.49800
C479        C  0.50576432  0.60246028  0.15420754     0.75100
O480        O  0.63095235  0.45250058  0.26527523    -0.66500
O481        O  0.56846004  0.38331961  0.26948402    -0.53700
C482        C  0.61513722  0.40451837  0.27260959     0.73500
Zr483      Zr  0.58809005  0.53093824  0.24592996     2.77500
O484        O  0.67428127  0.52708249  0.21958696    -0.97200
O485        O  0.63794599  0.56675817  0.28560176    -0.78100
Zr486      Zr  0.49993492  0.47333457  0.18183936     2.70100
O487        O  0.56066960  0.45051547  0.14237299    -0.79300
O488        O  0.43779014  0.42745399  0.14995527    -0.98400
Zr489      Zr  0.48700053  0.41185774  0.25250719     2.21500
Zr490      Zr  0.46388028  0.60307541  0.22219230     2.11100
O491        O  0.53948439  0.54995205  0.20523813    -2.47100
O492        O  0.54915319  0.45596404  0.22189362    -0.79100
O493        O  0.51456891  0.58585613  0.26258623    -0.71300
O494        O  0.43912437  0.42573825  0.21099976    -2.32200
O495        O  0.52753008  0.48623439  0.27766372    -2.28500
O496        O  0.42556590  0.52718400  0.19722332    -0.73100
H497        H  0.37015501  0.57431247  0.25606489     0.78900
H498        H  0.42898189  0.39263447  0.20127499     0.80000
H499        H  0.56406185  0.56800933  0.19230291     0.82300
H500        H  0.54608867  0.47548391  0.29407068     0.79900
H501        H  0.33542487  0.47257390  0.17183403     0.42900
H502        H  0.44198870  0.44786807  0.13243606     0.41900
H503        H  0.59769113  0.45710758  0.14946347     0.41500
H504        H  0.66451620  0.53327055  0.20003964     0.39500
H505        H  0.62534809  0.54435571  0.30150023     0.42600
H506        H  0.52651147  0.56506795  0.33566671     0.37400
H507        H  0.35829159  0.52573143  0.32714826     0.43500
H508        H  0.25212693  0.45517677  0.23272130     0.39900
H509        H  0.69420822  0.56079469  0.22535432     0.44900
H510        H  0.49711054  0.61985533  0.32977752     0.43600
H511        H  0.27210107  0.45861232  0.26352215     0.43700
H512        H  0.45462826  0.39145352  0.14556990     0.44100
C513        C  0.20820551  0.90189534  0.07164034    -0.19800
C514        C  0.16883595  0.86407961  0.08204957    -0.06400
C515        C  0.11669538  0.88496103  0.08986496     0.14500
C516        C  0.10622710  0.94037758  0.08627750    -0.19900
C517        C  0.14476810  0.97598729  0.07412865    -0.06400
C518        C  0.19744991  0.95695763  0.06814315     0.14500
C519        C  0.24436045  0.99513281  0.06118585    -0.23200
H520        H  0.25037689  0.89121844  0.06955277     0.15800
H521        H  0.06618456  0.95506366  0.09162096     0.15800
C522        C  0.07204105  0.85119750  0.10342688    -0.23200
H523        H  0.28385686  0.97348080  0.05951534     0.06000
H524        H  0.24756560  0.02607414  0.07833708     0.09200
H525        H  0.23924809  0.01503968  0.04098243     0.09200
H526        H  0.03648514  0.87645525  0.11017182     0.09200
H527        H  0.08638199  0.83168303  0.12243026     0.09200
H528        H  0.05666226  0.82068848  0.08812130     0.06000
C529        C  0.30215311  0.61825938  0.15799597    -0.19800
C530        C  0.29475789  0.62999673  0.18642814    -0.06400
C531        C  0.26514821  0.67537399  0.19605670     0.14500
C532        C  0.24832973  0.71140372  0.17670730    -0.19900
C533        C  0.26617205  0.70690407  0.14860475    -0.06400
C534        C  0.28597576  0.65527394  0.13857399     0.14500
C535        C  0.28613644  0.63456017  0.10860782    -0.23200
H536        H  0.32255993  0.58091039  0.15097073     0.15800
H537        H  0.21959933  0.74211796  0.18381329     0.15800
C538        C  0.25249292  0.68730104  0.22633588    -0.23200
H539        H  0.32858674  0.63085512  0.10032259     0.06000
H540        H  0.26720885  0.59304082  0.10771503     0.09200
H541        H  0.26213660  0.65959254  0.09472974     0.09200
H542        H  0.29126856  0.69297574  0.23716982     0.09200
H543        H  0.22762056  0.65325479  0.23502877     0.09200
H544        H  0.22897605  0.72563974  0.22978216     0.06000
C545        C  0.36866137  0.31634975  0.33691565    -0.19800
C546        C  0.32660456  0.34968333  0.34870482    -0.06400
C547        C  0.34240684  0.40078075  0.36178984     0.14500
C548        C  0.39718044  0.41674345  0.36085358    -0.19900
C549        C  0.43517074  0.38659045  0.34483321    -0.06400
C550        C  0.42283129  0.33199739  0.33779158     0.14500
C551        C  0.46591478  0.29231367  0.32735752    -0.23200
H552        H  0.36128045  0.27439460  0.33042245     0.15800
H553        H  0.40874392  0.45695626  0.36902255     0.15800
C554        C  0.30408911  0.43799475  0.37829873    -0.23200
H555        H  0.46427000  0.25514222  0.34021180     0.06000
H556        H  0.50736052  0.31068452  0.32872706     0.09200
H557        H  0.45869511  0.28010745  0.30526874     0.09200
H558        H  0.28284825  0.41580810  0.39537189     0.09200
H559        H  0.27535678  0.45656729  0.36413123     0.09200
H560        H  0.32585044  0.47294229  0.38847932     0.06000
C561        C  0.22623438  0.15202381  0.40324212    -0.19800
C562        C  0.19564159  0.20079082  0.40818352    -0.06400
C563        C  0.16843764  0.20697363  0.43428240     0.14500
C564        C  0.16536269  0.16211176  0.45184973    -0.19900
C565        C  0.18957293  0.11171391  0.44420613    -0.06400
C566        C  0.22423285  0.10863897  0.42096386     0.14500
C567        C  0.26372973  0.06276918  0.41595678    -0.23200
H568        H  0.25761926  0.14953938  0.38700057     0.15800
H569        H  0.14309973  0.16706201  0.47123911     0.15800
C570        C  0.14483213  0.26047767  0.44454895    -0.23200
H571        H  0.30564706  0.07982668  0.41349763     0.06000
H572        H  0.25355399  0.03961773  0.39657024     0.09200
H573        H  0.26399022  0.03551573  0.43403290     0.09200
H574        H  0.10629327  0.26744830  0.43403279     0.09200
H575        H  0.17439064  0.29466861  0.44163841     0.09200
H576        H  0.13492790  0.25983063  0.46707222     0.06000
C577        C  0.83258852  0.21705022  0.01641589    -0.19800
C578        C  0.82230456  0.16180661  0.01077365    -0.06400
C579        C  0.79253104  0.13167625  0.03083994     0.14500
C580        C  0.79057924  0.15099594  0.05852704    -0.19900
C581        C  0.80548559  0.20548528  0.06535921    -0.06400
C582        C  0.81936834  0.24063766  0.04241135     0.14500
C583        C  0.81366262  0.30239557  0.04216624    -0.23200
H584        H  0.85143155  0.24205377  0.00034811     0.15800
H585        H  0.77017878  0.12590780  0.07404442     0.15800
C586        C  0.76072251  0.08069091  0.02332543    -0.23200
H587        H  0.79694112  0.31474875  0.02202811     0.06000
H588        H  0.78426615  0.31899481  0.05796165     0.09200
H589        H  0.85410123  0.32265944  0.04366654     0.09200
H590        H  0.78001642  0.04496946  0.03236840     0.09200
H591        H  0.75782096  0.07440134  0.00041197     0.09200
H592        H  0.71837196  0.08423311  0.03187574     0.06000
C593        C  0.69511163  0.33328331  0.17407088    -0.19800
C594        C  0.68022894  0.29267073  0.15512278    -0.06400
C595        C  0.63275276  0.25918828  0.16093019     0.14500
C596        C  0.59821455  0.27445344  0.18298086    -0.19900
C597        C  0.60901307  0.32204654  0.19805825    -0.06400
C598        C  0.65988433  0.34904961  0.19536669     0.14500
C599        C  0.67672884  0.39669531  0.21356472    -0.23200
H600        H  0.73458689  0.35227967  0.17291042     0.15800
H601        H  0.55958484  0.25308845  0.18612497     0.15800
C602        C  0.61692208  0.20626171  0.14577008    -0.23200
H603        H  0.71428143  0.41735369  0.20547272     0.06000
H604        H  0.68620405  0.38149344  0.23430540     0.09200
H605        H  0.64465446  0.42782038  0.21462271     0.09200
H606        H  0.61709513  0.17219792  0.16069183     0.09200
H607        H  0.64355263  0.19382381  0.12788855     0.09200
H608        H  0.57503124  0.20952320  0.13813884     0.06000
C609        C  0.61106542  0.70888109  0.31426625    -0.19800
C610        C  0.66667598  0.69549720  0.31516974    -0.06400
C611        C  0.69368949  0.68114969  0.28915575     0.14500
C612        C  0.66373374  0.67622934  0.26481340    -0.19900
C613        C  0.60762118  0.68507128  0.26487564    -0.06400
C614        C  0.58140373  0.70389473  0.28984403     0.14500
C615        C  0.52223269  0.71887928  0.29132696    -0.23200
H616        H  0.59067949  0.72729935  0.33227259     0.15800
H617        H  0.68426639  0.66315327  0.24547506     0.15800
C618        C  0.75429826  0.67311626  0.28551208    -0.23200
H619        H  0.50908158  0.73499186  0.31231114     0.06000
H620        H  0.49763580  0.68182595  0.28698322     0.09200
H621        H  0.51412501  0.75079561  0.27596233     0.09200
H622        H  0.76508856  0.63204978  0.29250398     0.09200
H623        H  0.77766946  0.70610571  0.29620548     0.09200
H624        H  0.76775097  0.67405776  0.26320360     0.06000
C625        C  0.84669245  0.81285402  0.38856214    -0.19800
C626        C  0.79091370  0.81395876  0.39538944    -0.06400
C627        C  0.77348948  0.83581366  0.42133543     0.14500
C628        C  0.80969167  0.83560264  0.44288925    -0.19900
C629        C  0.86560695  0.82828716  0.43690525    -0.06400
C630        C  0.88436215  0.81654602  0.40944841     0.14500
C631        C  0.94396112  0.80989468  0.40194281    -0.23200
H632        H  0.86033618  0.80230043  0.36740006     0.15800
H633        H  0.79650563  0.85265212  0.46309592     0.15800
C634        C  0.72606252  0.87450986  0.42400960    -0.23200
H635        H  0.95068666  0.79863050  0.37953504     0.06000
H636        H  0.96112948  0.77699139  0.41447709     0.09200
H637        H  0.96617522  0.84889196  0.40597194     0.09200
H638        H  0.70054180  0.86632939  0.44295949     0.09200
H639        H  0.70073511  0.87273250  0.40522878     0.09200
H640        H  0.74201461  0.91712944  0.42625719     0.06000
C641        C  0.87185872  0.17351612  0.37587404    -0.19800
C642        C  0.82548560  0.18552408  0.39303898    -0.06400
C643        C  0.81608187  0.15588718  0.41695991     0.14500
C644        C  0.84030452  0.10503738  0.41842042    -0.19900
C645        C  0.88501718  0.09084571  0.40088321    -0.06400
C646        C  0.90160081  0.12604707  0.37937671     0.14500
C647        C  0.94777476  0.11330703  0.35891877    -0.23200
H648        H  0.88154063  0.19841854  0.35794874     0.15800
H649        H  0.82876033  0.07973146  0.43560488     0.15800
C650        C  0.79784809  0.18417922  0.44364628    -0.23200
H651        H  0.93261548  0.11359067  0.33733414     0.06000
H652        H  0.96541911  0.07233750  0.36184960     0.09200
H653        H  0.98031095  0.14496960  0.36102160     0.09200
H654        H  0.76756637  0.15885775  0.45534025     0.09200
H655        H  0.78329342  0.22626126  0.44058558     0.09200
H656        H  0.83399793  0.19079272  0.45631332     0.06000
C657        C  0.65282640  0.29011931  0.31443509    -0.19800
C658        C  0.68258777  0.31720043  0.33485263    -0.06400
C659        C  0.68149053  0.37475543  0.33685973     0.14500
C660        C  0.66647620  0.40275567  0.31365677    -0.19900
C661        C  0.64862267  0.37379942  0.29001267    -0.06400
C662        C  0.64266745  0.31611806  0.29013536     0.14500
C663        C  0.62674852  0.28135928  0.26505944    -0.23200
H664        H  0.64236140  0.24715191  0.31631780     0.15800
H665        H  0.66412377  0.44715112  0.31501642     0.15800
C666        C  0.68845415  0.40698405  0.36371644    -0.23200
H667        H  0.62959077  0.23686017  0.26906649     0.06000
H668        H  0.65503171  0.28994336  0.24726034     0.09200
H669        H  0.58423250  0.28835159  0.25944872     0.09200
H670        H  0.70068717  0.38125652  0.38109559     0.09200
H671        H  0.64913545  0.42630193  0.37000366     0.09200
H672        H  0.71873030  0.44029464  0.36043296     0.06000
C673        C  0.19220493  0.90507307  0.45373185    -0.19800
C674        C  0.17253117  0.86918836  0.47385576    -0.06400
C675        C  0.16010724  0.81475675  0.46606816     0.14500
C676        C  0.15783089  0.80059950  0.43780915    -0.19900
C677        C  0.17187670  0.83816505  0.41659412    -0.06400
C678        C  0.19424648  0.88983969  0.42545514     0.14500
C679        C  0.22876847  0.92587715  0.40683835    -0.23200
H680        H  0.20566903  0.94581624  0.46009921     0.15800
H681        H  0.15015079  0.75791558  0.43281540     0.15800
C682        C  0.15033795  0.77047378  0.48709232    -0.23200
H683        H  0.20263360  0.95326427  0.39519756     0.06000
H684        H  0.25699108  0.90240198  0.39284249     0.09200
H685        H  0.25685141  0.95112063  0.41942235     0.09200
H686        H  0.10818829  0.75431384  0.48564000     0.09200
H687        H  0.15732899  0.78512307  0.50880743     0.09200
H688        H  0.17878325  0.73621254  0.48253922     0.06000
C689        C  0.36651186  0.74555945  0.29736011    -0.19800
C690        C  0.35222817  0.69551663  0.28537075    -0.06400
C691        C  0.30074295  0.67088295  0.29076413     0.14500
C692        C  0.26479505  0.69818099  0.30819671    -0.19900
C693        C  0.28373235  0.73971953  0.32562105    -0.06400
C694        C  0.33377594  0.76760583  0.31861424     0.14500
C695        C  0.35490984  0.82005703  0.33228480    -0.23200
H696        H  0.40614363  0.76376682  0.29267407     0.15800
H697        H  0.22332891  0.68426275  0.30931715     0.15800
C698        C  0.28488490  0.61328677  0.28167984    -0.23200
H699        H  0.36033614  0.85179135  0.31621571     0.06000
H700        H  0.39512439  0.81242837  0.34123069     0.09200
H701        H  0.32843478  0.83794357  0.34902406     0.09200
H702        H  0.31021460  0.58332278  0.29221967     0.09200
H703        H  0.28922391  0.60767784  0.25891497     0.09200
H704        H  0.24186660  0.60320529  0.28744724     0.06000
C705        C  0.63655883  0.63871368  0.12629403    -0.19800
C706        C  0.63924039  0.69388084  0.13568163    -0.06400
C707        C  0.58857003  0.72116229  0.14221542     0.14500
C708        C  0.53996692  0.69137772  0.14133363    -0.19900
C709        C  0.53949455  0.63529210  0.13519216    -0.06400
C710        C  0.58693253  0.61141310  0.12343582     0.14500
C711        C  0.58596619  0.55876885  0.10635630    -0.23200
H712        H  0.67204687  0.61894796  0.11703559     0.15800
H713        H  0.50223236  0.71087231  0.14816066     0.15800
C714        C  0.58254872  0.78233431  0.14732578    -0.23200
H715        H  0.60298977  0.56656050  0.08509334     0.06000
H716        H  0.54410116  0.54230318  0.10380980     0.09200
H717        H  0.61164267  0.52792414  0.11602416     0.09200
H718        H  0.60197342  0.80598239  0.13023352     0.09200
H719        H  0.59855053  0.79451351  0.16784661     0.09200
H720        H  0.53923532  0.79494978  0.14816443     0.06000
C721        C  0.83678861  0.83870037  0.07954190    -0.19800
C722        C  0.78038911  0.83625041  0.07680271    -0.06400
C723        C  0.75257944  0.88537014  0.06967486     0.14500
C724        C  0.78298806  0.93005585  0.06068515    -0.19900
C725        C  0.83897778  0.93118594  0.06314628    -0.06400
C726        C  0.86612858  0.88622334  0.07405019     0.14500
C727        C  0.92589941  0.88777542  0.08039749    -0.23200
H728        H  0.85775357  0.80564984  0.08880337     0.15800
H729        H  0.76250274  0.96551902  0.05316160     0.15800
C730        C  0.69226409  0.89662865  0.07407776    -0.23200
H731        H  0.93284212  0.91838525  0.09742851     0.06000
H732        H  0.95064474  0.89865924  0.06164928     0.09200
H733        H  0.94045830  0.84773423  0.08754759     0.09200
H734        H  0.68661058  0.93808859  0.08382086     0.09200
H735        H  0.67062377  0.86900258  0.08858820     0.09200
H736        H  0.67210351  0.89617187  0.05367122     0.06000
C737        C  0.35001629  0.31679388  0.16921652    -0.19800
C738        C  0.29614521  0.33565052  0.16683244    -0.06400
C739        C  0.26564429  0.34591199  0.19250271     0.14500
C740        C  0.29188806  0.34472579  0.21794673    -0.19900
C741        C  0.34592517  0.32894771  0.21954596    -0.06400
C742        C  0.37280151  0.30810238  0.19512167     0.14500
C743        C  0.42471181  0.27569375  0.19526666    -0.23200
H744        H  0.37218187  0.30085778  0.15106203     0.15800
H745        H  0.27007201  0.35708631  0.23703438     0.15800
C746        C  0.20480375  0.35377113  0.19459749    -0.23200
H747        H  0.41973469  0.23754681  0.18237862     0.06000
H748        H  0.43482277  0.26208374  0.21629097     0.09200
H749        H  0.45895918  0.29994609  0.18612754     0.09200
H750        H  0.18281858  0.32143448  0.18265518     0.09200
H751        H  0.18887899  0.35098781  0.21645445     0.09200
H752        H  0.19454044  0.39528128  0.18808699     0.06000
C753        C  0.20442559  0.15735571  0.03949760    -0.19800
C754        C  0.17160559  0.18672822  0.02206102    -0.06400
C755        C  0.15682937  0.24027719  0.02957114     0.14500
C756        C  0.16804682  0.25991648  0.05614391    -0.19900
C757        C  0.19111993  0.22670038  0.07636907    -0.06400
C758        C  0.21335967  0.17556203  0.06679976     0.14500
C759        C  0.25066101  0.14138914  0.08356483    -0.23200
H760        H  0.21972079  0.11770818  0.03253700     0.15800
H761        H  0.16273495  0.30320844  0.05957135     0.15800
C762        C  0.12982899  0.27771621  0.00978088    -0.23200
H763        H  0.22620593  0.11574445  0.09799029     0.06000
H764        H  0.28094629  0.16650116  0.09493659     0.09200
H765        H  0.27526174  0.11344865  0.06975926     0.09200
H766        H  0.12603983  0.25876767  0.98862235     0.09200
H767        H  0.15450051  0.31585068  0.00755109     0.09200
H768        H  0.08867653  0.28857348  0.01821049     0.06000
C769        C  0.22296614  0.25671338  0.60660508     0.30500
C770        C  0.27715319  0.31111004  0.64659228     0.30500
C771        C  0.19512722  0.31013075  0.61745873    -0.05700
C772        C  0.22801149  0.22406903  0.63374392    -0.06500
C773        C  0.28116748  0.27496137  0.59795344    -0.06400
C774        C  0.22306816  0.34039966  0.63729966    -0.05700
C775        C  0.25766411  0.25154431  0.65327273    -0.06500
C776        C  0.31085862  0.30285244  0.61763476    -0.06400
C777        C  0.19086136  0.38822646  0.64196849    -0.31800
N778        N  0.14308562  0.38437737  0.62750698     0.14700
C779        C  0.14598945  0.33602039  0.61298381    -0.31800
H780        H  0.11386598  0.32056665  0.59990376     0.16700
C781        C  0.26158536  0.21724721  0.67598410    -0.30700
N782        N  0.23244337  0.17021900  0.67198391     0.13500
C783        C  0.21139015  0.17402406  0.64583655    -0.30700
C784        C  0.36200674  0.31308625  0.60322645    -0.31000
N785        N  0.36253860  0.29157894  0.57602651     0.14000
H786        H  0.39606927  0.33511091  0.61207980     0.16600
C787        C  0.31252758  0.26827089  0.57343986    -0.31000
H788        H  0.29952007  0.24649248  0.55481641     0.16600
H789        H  0.18540830  0.14321777  0.63629392     0.16600
H790        H  0.20173418  0.42343745  0.65485034     0.16700
H791        H  0.28401897  0.22626995  0.69462016     0.16600
N792        N  0.07119427  0.52162907  0.62147745    -0.36100
N793        N  0.99532063  0.42812903  0.62108609    -0.56700
N794        N  0.90056442  0.50567986  0.61879443    -0.36100
N795        N  0.97734602  0.59880207  0.61318001    -0.56700
C796        C  0.10684604  0.47893601  0.61885755     0.27500
C797        C  0.09704227  0.56762248  0.61195321     0.27500
C798        C  0.87531020  0.45614030  0.61366265     0.27500
C799        C  0.86525483  0.54701721  0.61312942     0.27500
C800        C  0.04147472  0.40198606  0.62868803     0.36100
C801        C  0.95258288  0.39201821  0.62389942     0.36100
C802        C  0.01982072  0.63468907  0.61721250     0.36100
C803        C  0.92995280  0.62706020  0.61813499     0.36100
C804        C  0.15547303  0.49807734  0.60727561    -0.21400
C805        C  0.14921068  0.55338588  0.60273663    -0.21400
C806        C  0.82340311  0.46670471  0.60460715    -0.21400
C807        C  0.81702723  0.52306008  0.60451999    -0.21400
C808        C  0.02733095  0.34944570  0.63677821    -0.22500
C809        C  0.97192937  0.34303634  0.63350198    -0.22500
C810        C  0.99904049  0.68544167  0.62511168    -0.22500
C811        C  0.94290577  0.68076574  0.62563790    -0.22500
C812        C  0.09674087  0.42299229  0.62634205    -0.17800
C813        C  0.07711351  0.62301071  0.61357259    -0.17800
C814        C  0.87508173  0.60577439  0.61535983    -0.17800
C815        C  0.89632495  0.40147703  0.61766928    -0.17800
H816        H  0.19154318  0.47446162  0.60210886     0.15100
H817        H  0.17989270  0.58021081  0.59365653     0.15100
H818        H  0.79295465  0.43697051  0.59823959     0.15100
H819        H  0.78107123  0.54385026  0.59807440     0.15100
H820        H  0.05409722  0.31850287  0.64421327     0.13400
H821        H  0.94845760  0.30645457  0.63816954     0.13400
H822        H  0.02190059  0.72177919  0.63092159     0.13400
H823        H  0.91488549  0.71314892  0.63162705     0.13400
H824        H  0.03320238  0.52067495  0.63164625     0.26600
H825        H  0.93855276  0.51090000  0.62746704     0.26600
C826        C  0.75092475  0.77365260  0.59187633     0.30500
C827        C  0.68948078  0.71505306  0.62750523     0.30500
C828        C  0.77763830  0.71765236  0.59992593    -0.05700
C829        C  0.74114058  0.80124735  0.62102540    -0.06500
C830        C  0.69505023  0.75561868  0.58097743    -0.06400
C831        C  0.74557895  0.68695987  0.61848442    -0.05700
C832        C  0.71014963  0.77136221  0.63951345    -0.06500
C833        C  0.66326053  0.72687799  0.59884393    -0.06400
C834        C  0.77843983  0.64305829  0.62648113    -0.31800
N835        N  0.82879875  0.64482891  0.61314585     0.14700
C836        C  0.82847779  0.69121918  0.59753364    -0.31800
H837        H  0.86396884  0.70583899  0.58604069     0.16700
C838        C  0.71352466  0.79932173  0.66542935    -0.30700
N839        N  0.74217200  0.84756126  0.66268907     0.13500
C840        C  0.76058270  0.84765425  0.63546618    -0.30700
C841        C  0.61425022  0.71571988  0.58473300    -0.31000
N842        N  0.61610976  0.73764673  0.55855266     0.14000
H843        H  0.57967613  0.69308108  0.59313307     0.16600
C844        C  0.66634818  0.76175714  0.55634268    -0.31000
H845        H  0.68101761  0.78357607  0.53820594     0.16600
H846        H  0.78710915  0.87885316  0.62667117     0.16600
H847        H  0.76714079  0.61319748  0.64195865     0.16700
H848        H  0.69676232  0.78489780  0.68503366     0.16600
N849        N  0.21577738  0.94309156  0.74529725    -0.36100
N850        N  0.21935532  0.02611788  0.70090441    -0.56700
N851        N  0.22983253  0.11354678  0.74485213    -0.36100
N852        N  0.21459316  0.03160550  0.78938094    -0.56700
C853        C  0.20528368  0.91169791  0.72189227     0.27500
C854        C  0.19754029  0.91521395  0.76828028     0.27500
C855        C  0.21791112  0.14315688  0.72202413     0.27500
C856        C  0.22204464  0.14643590  0.76816099     0.27500
C857        C  0.23013843  0.97985503  0.68512866     0.36100
C858        C  0.23185313  0.07013137  0.68475446     0.36100
C859        C  0.21885779  0.98624523  0.80538328     0.36100
C860        C  0.23269890  0.07594012  0.80471630     0.36100
C861        C  0.17941301  0.86380143  0.73018896    -0.21400
C862        C  0.17432716  0.86610769  0.75908616    -0.21400
C863        C  0.20097562  0.19476985  0.73127063    -0.21400
C864        C  0.20402211  0.19697260  0.76001859    -0.21400
C865        C  0.25004798  0.99495647  0.65903583    -0.22500
C866        C  0.25094853  0.05154156  0.65880047    -0.22500
C867        C  0.23992915  0.00197043  0.83083100    -0.22500
C868        C  0.24911025  0.05788281  0.83034612    -0.22500
C869        C  0.21948267  0.92425558  0.69326169    -0.17800
C870        C  0.20477760  0.93065052  0.79735934    -0.17800
C871        C  0.23217046  0.13269681  0.79652556    -0.17800
C872        C  0.22591673  0.12684162  0.69299786    -0.17800
H873        H  0.16511828  0.83064040  0.71677795     0.15100
H874        H  0.15569586  0.83481008  0.77191355     0.15100
H875        H  0.18765737  0.22778346  0.71861375     0.15100
H876        H  0.19322504  0.23179985  0.77339563     0.16300
H877        H  0.26325515  0.96813912  0.64189055     0.13400
H878        H  0.26550916  0.07604977  0.64163980     0.13400
H879        H  0.24990645  0.97570926  0.84768325     0.13400
H880        H  0.26718603  0.08195560  0.84697484     0.13400
H881        H  0.23892649  0.97906846  0.74563079     0.26600
H882        H  0.24759546  0.07501758  0.74445202     0.26600
N883        N  0.76724951  0.99246113  0.69106763    -0.36100
N884        N  0.76533784  0.08184168  0.73462535    -0.56700
N885        N  0.76177598  0.99934596  0.77925826    -0.36100
N886        N  0.75234557  0.91082725  0.73575018    -0.56700
C887        C  0.76005935  0.03772045  0.67548926     0.27500
C888        C  0.74707063  0.94801576  0.67666208     0.27500
C889        C  0.74832270  0.04597485  0.79429150     0.27500
C890        C  0.74759221  0.95506033  0.79496076     0.27500
C891        C  0.78200818  0.11032224  0.71153435     0.36100
C892        C  0.77253283  0.11517213  0.75778609     0.36100
C893        C  0.75998294  0.87740432  0.71262432     0.36100
C894        C  0.76322030  0.88077215  0.75856134     0.36100
C895        C  0.73429694  0.02197034  0.65123227    -0.21400
C896        C  0.72556900  0.96597370  0.65216140    -0.21400
C897        C  0.72471857  0.03050356  0.81960391    -0.21400
C898        C  0.72463933  0.97385160  0.82008589    -0.21400
C899        C  0.80079019  0.16157409  0.72042275    -0.22500
C900        C  0.79449978  0.16471731  0.74924598    -0.22500
C901        C  0.77667337  0.82648422  0.72083446    -0.22500
C902        C  0.77904137  0.82866582  0.74956931    -0.22500
C903        C  0.77596289  0.09292026  0.68249097    -0.17800
C904        C  0.75009403  0.89146622  0.68429120    -0.17800
C905        C  0.75524004  0.89812381  0.78742961    -0.17800
C906        C  0.75860239  0.10209497  0.78647178    -0.17800
H907        H  0.72155788  0.04825252  0.63487149     0.15100
H908        H  0.70453204  0.94145784  0.63676497     0.15100
H909        H  0.70822369  0.05710584  0.83607192     0.15100
H910        H  0.70815469  0.94936775  0.83688689     0.15100
H911        H  0.81715157  0.19383640  0.70747140     0.13400
H912        H  0.80566419  0.19948383  0.76241657     0.13400
H913        H  0.78708056  0.79146141  0.70751047     0.13400
H914        H  0.79144083  0.79540951  0.76232830     0.13400
H915        H  0.78889399  0.99151048  0.70939107     0.26600
H916        H  0.78343854  0.99768675  0.76027040     0.26600
C917        C  0.19089201  0.80732392  0.88815606     0.30500
C918        C  0.24879652  0.75363618  0.84818729     0.30500
C919        C  0.16492864  0.75034392  0.87857196    -0.05700
C920        C  0.19673567  0.83822084  0.85943662    -0.06500
C921        C  0.25010993  0.79122208  0.89562115    -0.06400
C922        C  0.19562914  0.72173414  0.85821536    -0.05700
C923        C  0.22668241  0.80921454  0.83963468    -0.06500
C924        C  0.27906049  0.76320764  0.87564791    -0.06400
C925        C  0.16838389  0.67092322  0.85400109    -0.31800
N926        N  0.12101932  0.66849625  0.86965869     0.14700
C927        C  0.11856503  0.71735143  0.88451837    -0.31800
H928        H  0.08541307  0.72818927  0.89888879     0.16700
C929        C  0.23050921  0.83885173  0.81521260    -0.30700
N930        N  0.20389841  0.88704062  0.81857289     0.13500
C931        C  0.18140752  0.88625662  0.84536300    -0.30700
C932        C  0.32856276  0.74835537  0.88735779    -0.31000
N933        N  0.33099360  0.76806400  0.91436328     0.14000
H934        H  0.35978561  0.72371054  0.87696619     0.16600
C935        C  0.28272096  0.79450610  0.91924898    -0.31000
H936        H  0.27137830  0.81432389  0.93896644     0.16600
H937        H  0.15493602  0.91792893  0.85389743     0.16600
H938        H  0.18200580  0.63662045  0.84110176     0.16700
H939        H  0.25289535  0.82646040  0.79635274     0.16600
N940        N  0.07311797  0.51800904  0.87049884    -0.36100
N941        N  0.98142099  0.59633616  0.86766560    -0.56700
N942        N  0.90329886  0.50187227  0.86317056    -0.36100
N943        N  0.99385954  0.42363224  0.87212688    -0.56700
C944        C  0.10051191  0.56683108  0.87447834     0.27500
C945        C  0.10719656  0.47581233  0.87611218     0.27500
C946        C  0.86818920  0.54493963  0.86676519     0.27500
C947        C  0.87547329  0.45462614  0.86950539     0.27500
C948        C  0.02441986  0.63239758  0.86504035     0.36100
C949        C  0.93509760  0.62337043  0.86113196     0.36100
C950        C  0.04182912  0.39564351  0.86951092     0.36100
C951        C  0.95243787  0.38728935  0.86638441     0.36100
C952        C  0.15246710  0.55501269  0.88296193    -0.21400
C953        C  0.15660639  0.49848691  0.88398402    -0.21400
C954        C  0.81795178  0.52462729  0.87560391    -0.21400
C955        C  0.82288404  0.46853166  0.87782436    -0.21400
C956        C  0.00495686  0.68226626  0.85672675    -0.22500
C957        C  0.94932425  0.67660748  0.85419827    -0.22500
C958        C  0.03030606  0.34153446  0.86209305    -0.22500
C959        C  0.97456675  0.33634313  0.86008251    -0.22500
C960        C  0.08112924  0.62185510  0.86999912    -0.17800
C961        C  0.09620968  0.41733987  0.87344916    -0.17800
C962        C  0.89486853  0.39889463  0.86708936    -0.17800
C963        C  0.87966679  0.60225157  0.86255728    -0.17800
H964        H  0.18437868  0.58409025  0.88815948     0.15100
H965        H  0.19219602  0.47667644  0.89010989     0.15100
H966        H  0.78178249  0.54798813  0.88089657     0.15100
H967        H  0.79167291  0.44113066  0.88579435     0.15100
H968        H  0.02840846  0.71899135  0.85235726     0.13400
H969        H  0.92258590  0.70834362  0.84759401     0.13400
H970        H  0.05910388  0.30914206  0.85757371     0.13400
H971        H  0.95318068  0.29926422  0.85382732     0.13400
H972        H  0.03467088  0.51345604  0.86235496     0.26600
H973        H  0.94268203  0.50409612  0.85469456     0.26600
C974        C  0.71865983  0.28160960  0.84830747     0.30500
C975        C  0.77907575  0.21750526  0.87978554     0.30500
C976        C  0.77543219  0.30628605  0.85594040    -0.05700
C977        C  0.69165033  0.26700574  0.87699400    -0.06500
C978        C  0.73477689  0.22495248  0.83408522    -0.06400
C979        C  0.80560982  0.27417290  0.87275449    -0.05700
C980        C  0.72138670  0.23312227  0.89329328    -0.06500
C981        C  0.76398927  0.19206601  0.85062043    -0.06400
C982        C  0.85337738  0.30407301  0.87871065    -0.31800
N983        N  0.85412049  0.35320103  0.86529439     0.14700
C984        C  0.80706867  0.35332550  0.85065221    -0.31800
H985        H  0.79649832  0.38571580  0.83694273     0.16700
C986        C  0.68791705  0.22519361  0.91756185    -0.30700
N987        N  0.64144262  0.25596458  0.91732376     0.13500
C988        C  0.64374856  0.28114590  0.89210439    -0.30700
C989        C  0.77532764  0.14375742  0.83489093    -0.31000
N990        N  0.75557680  0.14625498  0.80862939     0.14000
H991        H  0.79692092  0.10879624  0.84208582     0.16600
C992        C  0.73129343  0.19654639  0.80793862    -0.31000
H993        H  0.71243022  0.21155810  0.78959620     0.16600
H994        H  0.61333084  0.30906905  0.88522844     0.16600
H995        H  0.88465811  0.29104883  0.89240003     0.16700
H996        H  0.69584858  0.19808815  0.93425130     0.16600
N997        N  0.47582571  0.74909747  0.93978647    -0.36100
N998        N  0.56022560  0.75280923  0.98183084    -0.56700
N999        N  0.47112230  0.74568081  0.53170757    -0.36100
N1000       N  0.38966042  0.76270948  0.98659683    -0.56700
C1001       C  0.52173333  0.75742207  0.92332256     0.27500
C1002       C  0.43145934  0.76569286  0.92577101     0.27500
C1003       C  0.51785245  0.75285617  0.54634008     0.27500
C1004       C  0.42774957  0.76300606  0.54828067     0.27500
C1005       C  0.59086169  0.73729396  0.95870225     0.36100
C1006       C  0.58723408  0.72785729  0.50809783     0.36100
C1007       C  0.35926267  0.75125836  0.96365366     0.36100
C1008       C  0.35478918  0.75208289  0.51283276     0.36100
C1009       C  0.50611525  0.77999890  0.89864873    -0.21400
C1010       C  0.44993464  0.78552793  0.90028059    -0.21400
C1011       C  0.50375182  0.77560772  0.57234745    -0.21400
C1012       C  0.44776145  0.78197601  0.57353964    -0.21400
C1013       C  0.63975106  0.71640591  0.96709769    -0.22500
C1014       C  0.63639119  0.70607803  0.49844329    -0.22500
C1015       C  0.30835306  0.73249124  0.97263249    -0.22500
C1016       C  0.30326703  0.73604391  0.50470708    -0.22500
C1017       C  0.57715884  0.74504040  0.93006597    -0.17800
C1018       C  0.37474217  0.76114518  0.93479994    -0.17800
C1019       C  0.37052924  0.76060105  0.54160487    -0.17800
C1020       C  0.57279212  0.73844324  0.53738040    -0.17800
H1021       H  0.53247366  0.79243211  0.88142057     0.15100
H1022       H  0.42563564  0.80318388  0.88454275     0.15100
H1023       H  0.53098799  0.78750916  0.58879891     0.15100
H1024       H  0.42467905  0.79959377  0.59104508     0.15100
H1025       H  0.67230478  0.69951218  0.95397378     0.13400
H1026       H  0.66894349  0.69148202  0.51088364     0.13400
H1027       H  0.27522552  0.71889948  0.95971192     0.13400
H1028       H  0.26879337  0.72548947  0.51813566     0.13400
H1029       H  0.47420324  0.72919284  0.95873549     0.26600
H1030       H  0.46865416  0.72599643  0.51226250     0.26600
N1031       N  0.58259716  0.26631134  0.99254999    -0.36100
N1032       N  0.49891932  0.27735068  0.95037586    -0.56700
N1033       N  0.41340098  0.28624831  0.99691670    -0.36100
N1034       N  0.50572775  0.27951324  0.54115813    -0.56700
C1035       C  0.61446053  0.27170017  0.96868168     0.27500
C1036       C  0.61950297  0.26729589  0.51535470     0.27500
C1037       C  0.38406483  0.29824061  0.97400342     0.27500
C1038       C  0.38969156  0.29623946  0.52424155     0.27500
C1039       C  0.54176816  0.26102260  0.93325831     0.36100
C1040       C  0.45244880  0.27178669  0.93547400     0.36100
C1041       C  0.55002368  0.26188680  0.55501616     0.36100
C1042       C  0.46118702  0.27671307  0.55913130     0.36100
C1043       C  0.66619964  0.28776512  0.97640297    -0.21400
C1044       C  0.67043995  0.28275531  0.50483572    -0.21400
C1045       C  0.33582637  0.32236692  0.98337559    -0.21400
C1046       C  0.34093973  0.31876520  0.51648683    -0.21400
C1047       C  0.52203008  0.24465882  0.90757904    -0.22500
C1048       C  0.46625654  0.25126872  0.90896356    -0.22500
C1049       C  0.53261293  0.24725700  0.58157060    -0.22500
C1050       C  0.47750311  0.25716116  0.58430700    -0.22500
C1051       C  0.59864687  0.26218900  0.94006547    -0.17800
C1052       C  0.60619955  0.26060953  0.54462328    -0.17800
C1053       C  0.40566206  0.29003069  0.55309230    -0.17800
C1054       C  0.39783246  0.28624597  0.94484217    -0.17800
H1055       H  0.70075201  0.29664051  0.96269318     0.15100
H1056       H  0.70556711  0.29525274  0.51657668     0.15100
H1057       H  0.30383180  0.33742071  0.97070735     0.15100
H1058       H  0.31033321  0.33763552  0.53015998     0.15100
H1059       H  0.54514698  0.22863061  0.88969134     0.13400
H1060       H  0.43902939  0.24102094  0.89227188     0.13400
H1061       H  0.55654962  0.22935775  0.59724987     0.13400
H1062       H  0.45213085  0.24851765  0.60250889     0.13400
H1063       H  0.54304170  0.25071105  0.99357639     0.26600
H1064       H  0.44930136  0.26409945  0.99643109     0.26600
C1065       C  0.76356740  0.77904541  0.87764657     0.30500
C1066       C  0.70644177  0.71947906  0.83931741     0.30500
C1067       C  0.78725794  0.72112673  0.86951006    -0.05700
C1068       C  0.70423352  0.76307249  0.88710064    -0.06500
C1069       C  0.75685908  0.80704818  0.84911405    -0.06400
C1070       C  0.75895973  0.69038468  0.84981970    -0.05700
C1071       C  0.67411683  0.73311929  0.86781656    -0.06500
C1072       C  0.72731361  0.77665507  0.83031866    -0.06400
C1073       C  0.78848574  0.64094520  0.84588539    -0.31800
N1074       N  0.83383037  0.64161918  0.86209141     0.14700
C1075       C  0.83093185  0.68913888  0.87747980    -0.31800
H1076       H  0.85928737  0.69908574  0.89366317     0.16700
C1077       C  0.62320043  0.72246029  0.88162599    -0.30700
N1078       N  0.62176194  0.74537782  0.90820820     0.13500
C1079       C  0.67199752  0.76863109  0.91147010    -0.30700
C1080       C  0.72270003  0.80751533  0.80646522    -0.31000
N1081       N  0.75020760  0.85601900  0.80922055     0.14000
H1082       H  0.70024246  0.79526356  0.78822220     0.16600
C1083       C  0.77100358  0.85620016  0.83561350    -0.31000
H1084       H  0.79490020  0.88944746  0.84449965     0.16600
H1085       H  0.68491798  0.78729180  0.93082295     0.16600
H1086       H  0.77780738  0.60717327  0.83200751     0.16700
H1087       H  0.59016934  0.69819724  0.87317347     0.16600
C1088       C  0.79223999  0.21683866  0.59133349     0.30500
C1089       C  0.73027012  0.26616322  0.63106811     0.30500
C1090       C  0.81659540  0.27286407  0.60321218    -0.05700
C1091       C  0.73294688  0.23145459  0.58302269    -0.06500
C1092       C  0.78391022  0.18300711  0.61925070    -0.06400
C1093       C  0.78311236  0.29945059  0.62305211    -0.05700
C1094       C  0.70274796  0.25821696  0.60297850    -0.06500
C1095       C  0.75281067  0.21093052  0.63897874    -0.06400
C1096       C  0.80867273  0.34977306  0.62963912    -0.31800
N1097       N  0.85817749  0.35374850  0.61613483     0.14700
C1098       C  0.86400423  0.30578121  0.60074478    -0.31800
H1099       H  0.90037121  0.29530483  0.58864459     0.16700
C1100       C  0.65391495  0.27340769  0.59124280    -0.30700
N1101       N  0.65134983  0.25363971  0.56433984     0.13500
C1102       C  0.70015784  0.22749743  0.55938571    -0.30700
C1103       C  0.74913653  0.18204599  0.66340234    -0.31000
N1104       N  0.77640713  0.13458969  0.66039978     0.14000
H1105       H  0.72643447  0.19456967  0.68214097     0.16600
C1106       C  0.79808826  0.13433295  0.63327482    -0.31000
H1107       H  0.82284263  0.10158921  0.62432097     0.16600
H1108       H  0.71180506  0.20719452  0.53981712     0.16600
H1109       H  0.79237333  0.38258669  0.64276899     0.16700
H1110       H  0.62312597  0.29844281  0.60170611     0.16600
C1111       C  0.28137937  0.31233903  0.85555393     0.30500
C1112       C  0.22080321  0.24692303  0.88959105     0.30500
C1113       C  0.22358453  0.33607023  0.86477714    -0.05700
C1114       C  0.26437379  0.25552630  0.84224861    -0.06500
C1115       C  0.30706090  0.29883312  0.88404806    -0.06400
C1116       C  0.19280612  0.30291799  0.88315049    -0.05700
C1117       C  0.23418994  0.22343229  0.85978179    -0.06500
C1118       C  0.27549152  0.26818878  0.90155432    -0.06400
C1119       C  0.14466509  0.33180449  0.88963264    -0.31800
N1120       N  0.14229716  0.37834169  0.87427766     0.14700
C1121       C  0.18986967  0.38007284  0.85864275    -0.31800
H1122       H  0.19806534  0.40991071  0.84279548     0.16700
C1123       C  0.21806626  0.17657794  0.84458205    -0.30700
N1124       N  0.23877264  0.17724094  0.81800410     0.13500
C1125       C  0.26604768  0.22666103  0.81615780    -0.30700
C1126       C  0.30394756  0.26328116  0.92637590    -0.31000
N1127       N  0.35409212  0.28767162  0.92406239     0.14000
H1128       H  0.28969704  0.24102872  0.94446300     0.16600
C1129       C  0.35576082  0.31029905  0.89813291    -0.31000
H1130       H  0.39012501  0.33344204  0.88986288     0.16600
H1131       H  0.28575989  0.24102104  0.79719173     0.16600
H1132       H  0.11344612  0.32035094  0.90468834     0.16700
H1133       H  0.19174423  0.14428100  0.85229908     0.16600
C1134       C  0.24823217  0.74103934  0.63403065     0.30500
C1135       C  0.19086439  0.80692016  0.60166211     0.30500
C1136       C  0.19239480  0.71831518  0.62488165    -0.05700
C1137       C  0.23515849  0.79870756  0.64745292    -0.06500
C1138       C  0.27840784  0.75640623  0.60567291    -0.06400
C1139       C  0.16350463  0.74979524  0.60737656    -0.05700
C1140       C  0.20504170  0.83106775  0.63113113    -0.06500
C1141       C  0.24842146  0.78952798  0.58876418    -0.06400
C1142       C  0.11855933  0.71661331  0.59955943    -0.31800
N1143       N  0.11761634  0.66850670  0.61386882     0.14700
C1144       C  0.16325783  0.66986204  0.62922994    -0.31800
H1145       H  0.17510526  0.63727429  0.64258883     0.16700
C1146       C  0.19558989  0.88034582  0.64627761    -0.30700
N1147       N  0.22001303  0.87978908  0.67147561     0.13500
C1148       C  0.24540135  0.83017474  0.67199461    -0.30700
C1149       C  0.27910741  0.79413536  0.56350012    -0.31000
N1150       N  0.32763666  0.76674275  0.56445978     0.14000
H1151       H  0.26619367  0.81542947  0.54538025     0.16600
C1152       C  0.32727932  0.74448655  0.59056122    -0.31000
H1153       H  0.35968513  0.71963589  0.59795277     0.16600
H1154       H  0.27023367  0.81798880  0.68896939     0.16600
H1155       H  0.08955544  0.72610831  0.58394916     0.16700
H1156       H  0.17244180  0.91451557  0.63926513     0.16600
O1157       O  0.06485729  0.15712272  0.52213995    -0.74800
O1158       O  0.13674634  0.10266276  0.51095347    -0.53700
C1159       C  0.11559427  0.14584716  0.52141860     0.78900
O1160       O  0.88571483  0.92920271  0.53787537    -0.59400
O1161       O  0.84349042  0.94342623  0.49708455    -0.52400
C1162       C  0.84817648  0.91988284  0.52027030     0.70900
O1163       O  0.03440841  0.01022522  0.58116409    -0.74000
O1164       O  0.10720896  0.03846856  0.55763011    -0.54500
C1165       C  0.08552453  0.00698424  0.57539535     0.76900
O1166       O  0.90162804  0.12687487  0.47757535    -0.59100
O1167       O  0.84191552  0.05995083  0.48219365    -0.52200
C1168       C  0.85652132  0.10899960  0.48784239     0.73500
Zr1169     Zr  0.98556191  0.11535451  0.50175050     2.54700
O1170       O  0.94114920  0.15376366  0.54376105    -0.79700
O1171       O  0.99100470  0.20808501  0.48425511    -0.93100
Zr1172     Zr  0.96584573  0.98412942  0.54725658     2.64700
O1173       O  0.90415469  0.03401942  0.57926658    -0.98000
O1174       O  0.95857040  0.91062887  0.58055857    -0.80100
O1175       O  0.02544900  0.05554803  0.53311194    -0.83500
O1176       O  0.92672793  0.04433920  0.51671137    -2.18200
O1177       O  0.94715123  0.04123161  0.91262744    -0.66900
O1178       O  0.87518791  0.00989832  0.93823522    -0.51400
C1179       C  0.89583222  0.03770742  0.91826177     0.71900
O1180       O  0.10753239  0.88128551  0.00979807    -0.59800
O1181       O  0.17076618  0.94571763  0.00375615    -0.51700
C1182       C  0.15137016  0.89813885  0.99774769     0.73700
O1183       O  0.93263063  0.85710844  0.97564782    -0.71200
O1184       O  0.86745295  0.92211080  0.97478461    -0.49800
C1185       C  0.88559835  0.87429456  0.96855826     0.75100
O1186       O  0.12623821  0.00461051  0.92010625    -0.66500
O1187       O  0.17598574  0.03686797  0.95561511    -0.53700
C1188       C  0.16226031  0.03683767  0.93006021     0.73500
Zr1189     Zr  0.02978818  0.00491225  0.93081265     2.77500
O1190       O  0.02490210  0.91784791  0.90484921    -0.97200
O1191       O  0.03877635  0.03546004  0.88275584    -0.78100
Zr1192     Zr  0.01680608  0.90092963  0.99310419     2.70100
O1193       O  0.04194995  0.82658544  0.96096729    -0.79300
O1194       O  0.99626295  0.83251500  0.02815327    -0.98400
Zr1195     Zr  0.11502889  0.02418513  0.99519474     2.21500
Zr1196     Zr  0.91364566  0.00677323  0.98354692     2.11100
O1197       O  0.97304868  0.94785401  0.95724820    -2.47100
O1198       O  0.07668329  0.95540003  0.96457850    -0.79100
O1199       O  0.97322987  0.05790941  0.95823953    -0.71300
O1200       O  0.05567749  0.96878164  0.02353675    -2.32200
O1201       O  0.06862748  0.07336984  0.96056508    -2.28500
O1202       O  0.96465266  0.96631412  0.01529945    -0.73100
H1203       H  0.89463341  0.05715789  0.52651565     0.78900
H1204       H  0.07389616  0.95012777  0.03773172     0.80000
H1205       H  0.95520984  0.92578594  0.94327607     0.82300
H1206       H  0.09212051  0.09929969  0.95145700     0.79900
H1207       H  0.94154822  0.92768438  0.59757916     0.42900
H1208       H  0.99013255  0.79786660  0.01744699     0.41900
H1209       H  0.02502107  0.79352501  0.96920064     0.41500
H1210       H  0.04807827  0.92303787  0.88787195     0.39500
H1211       H  0.06935666  0.01446686  0.87405212     0.42600
H1212       H  0.02701714  0.21034010  0.47451453     0.37400
H1213       H  0.95509159  0.13218247  0.55915088     0.43500
H1214       H  0.87085501  0.01081641  0.58030946     0.39900
H1215       H  0.04605422  0.89256766  0.91601549     0.44900
H1216       H  0.99427334  0.23200016  0.50115254     0.43600
H1217       H  0.92035907  0.03098979  0.59780501     0.43700
H1218       H  0.03106344  0.82695495  0.03749977     0.44100
O1219       O  0.49523666  0.45683654  0.82610891    -0.74800
O1220       O  0.51362152  0.38215573  0.80015194    -0.53700
C1221       C  0.48528206  0.40691044  0.81921072     0.78900
O1222       O  0.32644738  0.54890624  0.71834804    -0.59400
O1223       O  0.38272620  0.62371290  0.71291965    -0.52400
C1224       C  0.33785749  0.59745870  0.71014717     0.70900
O1225       O  0.37101934  0.38704144  0.76134020    -0.74000
O1226       O  0.43766162  0.32998709  0.75188421    -0.54500
C1227       C  0.38802799  0.34296094  0.74931252     0.76900
O1228       O  0.42686122  0.61514785  0.79959382    -0.59100
O1229       O  0.42582552  0.65999960  0.75825933    -0.52200
C1230       C  0.41070113  0.65247713  0.78356705     0.73500
Zr1231     Zr  0.47870375  0.53209217  0.79558153     2.54700
O1232       O  0.42844873  0.55138515  0.83926419    -0.79700
O1233       O  0.55400643  0.57989700  0.81773928    -0.93100
Zr1234     Zr  0.37586674  0.47378556  0.73750350     2.64700
O1235       O  0.28982705  0.47891673  0.76399728    -0.98000
O1236       O  0.33044888  0.43687461  0.69702521    -0.80100
O1237       O  0.43942025  0.46093543  0.77057600    -0.83500
O1238       O  0.41950060  0.54787462  0.75867937    -2.18200
O1239       O  0.60818389  0.61999792  0.72498784    -0.66900
O1240       O  0.53786942  0.67231776  0.73558948    -0.51400
C1241       C  0.58779124  0.66026070  0.73890040     0.71900
O1242       O  0.55905125  0.40183439  0.68125881    -0.59800
O1243       O  0.53520047  0.34280476  0.71554248    -0.51700
C1244       C  0.56410755  0.35779730  0.69450890     0.73700
O1245       O  0.48924213  0.54974116  0.65171197    -0.71200
O1246       O  0.46682902  0.62345753  0.67796392    -0.49800
C1247       C  0.49559451  0.60021498  0.65856751     0.75100
O1248       O  0.65154409  0.45227404  0.75937074    -0.66500
O1249       O  0.59823253  0.38395304  0.74585064    -0.53700
C1250       C  0.63351149  0.40325038  0.76187284     0.73500
Zr1251     Zr  0.60029511  0.52605302  0.74037714     2.77500
O1252       O  0.67954265  0.52627099  0.70857404    -0.97200
O1253       O  0.65768569  0.55936233  0.77777141    -0.78100
Zr1254     Zr  0.49468385  0.47252132  0.68231814     2.70100
O1255       O  0.53056045  0.43435400  0.63794935    -0.79300
O1256       O  0.41827272  0.42864444  0.65900549    -0.98400
Zr1257     Zr  0.50439190  0.40377456  0.75198879     2.21500
Zr1258     Zr  0.47123293  0.59963110  0.72608217     2.11100
O1259       O  0.54254659  0.54761434  0.70348371    -2.47100
O1260       O  0.54535865  0.46017550  0.72081758    -0.79100
O1261       O  0.53166431  0.58071304  0.76276814    -0.71300
O1262       O  0.44431150  0.42098172  0.71503652    -2.32200
O1263       O  0.54901254  0.47858695  0.77556217    -2.28500
O1264       O  0.42588234  0.52468016  0.70371629    -0.73100
H1265       H  0.38652723  0.56615103  0.76421604     0.78900
H1266       H  0.43178745  0.38836969  0.70566573     0.80000
H1267       H  0.56490069  0.56682648  0.69017644     0.82300
H1268       H  0.57162158  0.46784366  0.79052357     0.79900
H1269       H  0.29417639  0.45414084  0.69774220     0.42900
H1270       H  0.41460493  0.44879654  0.64152504     0.41900
H1271       H  0.50804808  0.44996140  0.62340587     0.41500
H1272       H  0.66541211  0.53726575  0.69044962     0.39500
H1273       H  0.64519944  0.53939176  0.79451168     0.42600
H1274       H  0.55879483  0.56018163  0.83526999     0.37400
H1275       H  0.45294969  0.57530398  0.85036231     0.43500
H1276       H  0.26686682  0.44947568  0.75573975     0.39900
H1277       H  0.70176291  0.55810149  0.71489144     0.44900
H1278       H  0.53885532  0.61578728  0.82388830     0.43600
H1279       H  0.29807465  0.46600131  0.78278874     0.43700
H1280       H  0.43199883  0.39216540  0.65285664     0.44100
C1281       C  0.18909062  0.89373284  0.57624992    -0.19800
C1282       C  0.15804160  0.85112926  0.58848184    -0.06400
C1283       C  0.10483724  0.86450785  0.59950646     0.14500
C1284       C  0.08457105  0.91669335  0.59607520    -0.19900
C1285       C  0.11460499  0.95719521  0.58255962    -0.06400
C1286       C  0.16906140  0.94674461  0.57409060     0.14500
C1287       C  0.20823060  0.99185575  0.56554575    -0.23200
H1288       H  0.23170342  0.88802789  0.57131129     0.15800
H1289       H  0.04465801  0.92638112  0.60473396     0.15800
C1290       C  0.06955383  0.82772399  0.61750908    -0.23200
H1291       H  0.25082276  0.97728372  0.56342389     0.06000
H1292       H  0.20713653  0.02493413  0.58181126     0.09200
H1293       H  0.19782623  0.00860000  0.54519103     0.09200
H1294       H  0.03545697  0.85014085  0.62819868     0.09200
H1295       H  0.09261176  0.80996210  0.63450912     0.09200
H1296       H  0.04973857  0.79645809  0.60414979     0.06000
C1297       C  0.30945373  0.61201509  0.66371386    -0.19800
C1298       C  0.30094542  0.62322038  0.69220498    -0.06400
C1299       C  0.27111496  0.66862926  0.70149735     0.14500
C1300       C  0.25397735  0.70467870  0.68184661    -0.19900
C1301       C  0.27084206  0.69978383  0.65340739    -0.06400
C1302       C  0.29285015  0.64863735  0.64394174     0.14500
C1303       C  0.29583739  0.62824282  0.61395256    -0.23200
H1304       H  0.33109631  0.57526621  0.65688722     0.15800
H1305       H  0.22571581  0.73569704  0.68907266     0.15800
C1306       C  0.25869075  0.67986364  0.73201616    -0.23200
H1307       H  0.33896556  0.62616374  0.60650049     0.06000
H1308       H  0.27808096  0.58622573  0.61252516     0.09200
H1309       H  0.27205109  0.65264836  0.59972857     0.09200
H1310       H  0.29731445  0.68609589  0.74306104     0.09200
H1311       H  0.23556695  0.64475485  0.74090465     0.09200
H1312       H  0.23403305  0.71740593  0.73558035     0.06000
C1313       C  0.36681816  0.30958704  0.82711902    -0.19800
C1314       C  0.32557785  0.34351046  0.83943844    -0.06400
C1315       C  0.34107299  0.39795850  0.84747945     0.14500
C1316       C  0.39362276  0.41671494  0.84081366    -0.19900
C1317       C  0.43356926  0.38220386  0.82892439    -0.06400
C1318       C  0.42074553  0.32676765  0.82391857     0.14500
C1319       C  0.46313832  0.28299274  0.81850490    -0.23200
H1320       H  0.36027659  0.26613337  0.82418234     0.15800
H1321       H  0.40407532  0.45847754  0.84615902     0.15800
C1322       C  0.30586521  0.43579202  0.86544803    -0.23200
H1323       H  0.45616890  0.24950164  0.83350781     0.06000
H1324       H  0.50529403  0.29755673  0.82189053     0.09200
H1325       H  0.45981773  0.26563064  0.79699939     0.09200
H1326       H  0.28998887  0.41497555  0.88433082     0.09200
H1327       H  0.27290122  0.45189942  0.85302217     0.09200
H1328       H  0.32893795  0.47232303  0.87311538     0.06000
C1329       C  0.24119068  0.15906648  0.91090593    -0.19800
C1330       C  0.19937991  0.19699251  0.90500889    -0.06400
C1331       C  0.14665962  0.17456374  0.90079115     0.14500
C1332       C  0.13726839  0.11887103  0.90554374    -0.19900
C1333       C  0.17852427  0.08458519  0.91427515    -0.06400
C1334       C  0.23165001  0.10402534  0.91511205     0.14500
C1335       C  0.27903073  0.06599476  0.91791201    -0.23200
H1336       H  0.28363907  0.16971677  0.90837802     0.15800
H1337       H  0.09628861  0.10307932  0.90431097     0.15800
C1338       C  0.10109523  0.20646111  0.88903015    -0.23200
H1339       H  0.31864204  0.08837044  0.91787964     0.06000
H1340       H  0.28027371  0.03679669  0.89977634     0.09200
H1341       H  0.27538076  0.04340584  0.93764064     0.09200
H1342       H  0.11464061  0.22636207  0.86946575     0.09200
H1343       H  0.08594174  0.23654506  0.90491409     0.09200
H1344       H  0.06594120  0.17960333  0.88364120     0.06000
C1345       C  0.84385263  0.19398680  0.51584716    -0.19800
C1346       C  0.83114570  0.13849114  0.51204455    -0.06400
C1347       C  0.80403566  0.11072410  0.53404186     0.14500
C1348       C  0.80214126  0.13534012  0.56063733    -0.19900
C1349       C  0.81757048  0.19046384  0.56526719    -0.06400
C1350       C  0.83290966  0.22152396  0.54121639     0.14500
C1351       C  0.83306657  0.28338926  0.53999168    -0.23200
H1352       H  0.86244311  0.21650203  0.49881864     0.15800
H1353       H  0.78292044  0.11263693  0.57738217     0.15800
C1354       C  0.77634517  0.05572162  0.53007546    -0.23200
H1355       H  0.82642811  0.29679121  0.51839184     0.06000
H1356       H  0.79936673  0.30193695  0.55267287     0.09200
H1357       H  0.87326328  0.30034732  0.54561426     0.09200
H1358       H  0.80682506  0.02315064  0.52720536     0.09200
H1359       H  0.74972961  0.05639728  0.51178834     0.09200
H1360       H  0.75021060  0.04501237  0.54848188     0.06000
C1361       C  0.70305855  0.32549484  0.67081661    -0.19800
C1362       C  0.69026079  0.28210914  0.65314853    -0.06400
C1363       C  0.64070225  0.25160891  0.65791771     0.14500
C1364       C  0.60120573  0.27477781  0.67539131    -0.19900
C1365       C  0.61026825  0.32665384  0.68668139    -0.06400
C1366       C  0.66235441  0.35161742  0.68564165     0.14500
C1367       C  0.67655389  0.40746063  0.69731546    -0.23200
H1368       H  0.74376671  0.34128042  0.67214389     0.15800
H1369       H  0.56156309  0.25508955  0.67773672     0.15800
C1370       C  0.62702328  0.19534643  0.64569172    -0.23200
H1371       H  0.69416970  0.43282355  0.68030799     0.06000
H1372       H  0.70741997  0.40369272  0.71357804     0.09200
H1373       H  0.64116587  0.42960550  0.70616488     0.09200
H1374       H  0.62417373  0.16564758  0.66284240     0.09200
H1375       H  0.65639711  0.17909801  0.62982033     0.09200
H1376       H  0.58680654  0.19595292  0.63598788     0.06000
C1377       C  0.62106574  0.71101379  0.81228622    -0.19800
C1378       C  0.67591104  0.69557056  0.81420934    -0.06400
C1379       C  0.70333959  0.67860556  0.78866434     0.14500
C1380       C  0.67361467  0.67029120  0.76434341    -0.19900
C1381       C  0.61804339  0.68175490  0.76345802    -0.06400
C1382       C  0.59252273  0.70586947  0.78747265     0.14500
C1383       C  0.53561608  0.72750929  0.78741535    -0.23200
H1384       H  0.60093538  0.73201021  0.82963208     0.15800
H1385       H  0.69450970  0.65453459  0.74561041     0.15800
C1386       C  0.76432181  0.67413379  0.78466617    -0.23200
H1387       H  0.52354728  0.74849456  0.80745599     0.06000
H1388       H  0.50746287  0.69275793  0.78442425     0.09200
H1389       H  0.53187764  0.75739560  0.77053396     0.09200
H1390       H  0.77659452  0.63073304  0.78603845     0.09200
H1391       H  0.78721790  0.70103692  0.79909073     0.09200
H1392       H  0.77726096  0.68807269  0.76358336     0.06000
C1393       C  0.85228731  0.80312723  0.90018598    -0.19800
C1394       C  0.79641877  0.81237963  0.89880184    -0.06400
C1395       C  0.77292708  0.84916269  0.91878381     0.14500
C1396       C  0.80008685  0.86047106  0.94353247    -0.19900
C1397       C  0.85419428  0.84378405  0.94702941    -0.06400
C1398       C  0.88082275  0.81514693  0.92440989     0.14500
C1399       C  0.93941221  0.79799462  0.92472308    -0.23200
H1400       H  0.87381662  0.78545639  0.88217562     0.15800
H1401       H  0.78045500  0.88724897  0.95908523     0.15800
C1402       C  0.72422575  0.88365131  0.91291402    -0.23200
H1403       H  0.95210146  0.77466852  0.90543228     0.06000
H1404       H  0.94534293  0.77091790  0.94257130     0.09200
H1405       H  0.96608377  0.83462303  0.92611280     0.09200
H1406       H  0.69210114  0.87922127  0.92947912     0.09200
H1407       H  0.70700598  0.87377077  0.89227088     0.09200
H1408       H  0.73702150  0.92744906  0.91282005     0.06000
C1409       C  0.86087434  0.15831514  0.87705399    -0.19800
C1410       C  0.81776500  0.18007855  0.89364175    -0.06400
C1411       C  0.80570430  0.15715254  0.91935675     0.14500
C1412       C  0.82244344  0.10374603  0.92370139    -0.19900
C1413       C  0.86129884  0.07824101  0.90561861    -0.06400
C1414       C  0.87992330  0.10582490  0.88157289     0.14500
C1415       C  0.91748001  0.08015074  0.85959660    -0.23200
H1416       H  0.87378096  0.17863783  0.85808365     0.15800
H1417       H  0.81092613  0.08556906  0.94328937     0.15800
C1418       C  0.79718101  0.19438837  0.94448141    -0.23200
H1419       H  0.89892113  0.08250540  0.83883273     0.06000
H1420       H  0.92462831  0.03611369  0.86312293     0.09200
H1421       H  0.95696918  0.10270294  0.85904597     0.09200
H1422       H  0.76793659  0.17601537  0.95975614     0.09200
H1423       H  0.78420602  0.23598250  0.93904179     0.09200
H1424       H  0.83700362  0.20088240  0.95422749     0.06000
C1425       C  0.64821069  0.28938510  0.81255388    -0.19800
C1426       C  0.68255394  0.31596766  0.83139629    -0.06400
C1427       C  0.68327087  0.37360312  0.83247054     0.14500
C1428       C  0.66895599  0.40082318  0.80880887    -0.19900
C1429       C  0.64721918  0.37180145  0.78603054    -0.06400
C1430       C  0.63134478  0.31604032  0.78916623     0.14500
C1431       C  0.59787581  0.28351250  0.76844780    -0.23200
H1432       H  0.63726201  0.24671062  0.81527548     0.15800
H1433       H  0.67315114  0.44508207  0.80868070     0.15800
C1434       C  0.69280982  0.40728939  0.85859146    -0.23200
H1435       H  0.59146246  0.24034967  0.77471016     0.06000
H1436       H  0.61889356  0.28252329  0.74763273     0.09200
H1437       H  0.55690276  0.30166270  0.76712036     0.09200
H1438       H  0.70451993  0.38225664  0.87633542     0.09200
H1439       H  0.65461994  0.42872055  0.86491159     0.09200
H1440       H  0.72423064  0.43905962  0.85430072     0.06000
C1441       C  0.18993494  0.90532394  0.95039913    -0.19800
C1442       C  0.16792727  0.87209954  0.97104351    -0.06400
C1443       C  0.15488953  0.81746392  0.96434650     0.14500
C1444       C  0.15255427  0.80126803  0.93626400    -0.19900
C1445       C  0.16951658  0.83631500  0.91443538    -0.06400
C1446       C  0.19221796  0.88842617  0.92244142     0.14500
C1447       C  0.22624473  0.92413157  0.90328493    -0.23200
H1448       H  0.20684804  0.94468105  0.95635947     0.15800
H1449       H  0.14456911  0.75837009  0.93214720     0.15800
C1450       C  0.14755232  0.77455602  0.98631370    -0.23200
H1451       H  0.19979979  0.94777055  0.89000527     0.06000
H1452       H  0.25702265  0.90052121  0.89086231     0.09200
H1453       H  0.25031693  0.95450081  0.91534856     0.09200
H1454       H  0.15487240  0.79102098  0.00766884     0.09200
H1455       H  0.17748364  0.74141376  0.98208289     0.09200
H1456       H  0.10609783  0.75632269  0.98580352     0.06000
C1457       C  0.37502331  0.73657080  0.80222354    -0.19800
C1458       C  0.36565788  0.68286332  0.79383522    -0.06400
C1459       C  0.31420410  0.65728611  0.79767366     0.14500
C1460       C  0.27385751  0.68659490  0.81120982    -0.19900
C1461       C  0.28692546  0.73407611  0.82587029    -0.06400
C1462       C  0.33686785  0.76264247  0.81940178     0.14500
C1463       C  0.35352634  0.81892650  0.83042049    -0.23200
H1464       H  0.41419640  0.75599643  0.79781835     0.15800
H1465       H  0.23310814  0.67094489  0.81109667     0.15800
C1466       C  0.30082878  0.59906994  0.78900502    -0.23200
H1467       H  0.35864910  0.84702411  0.81266453     0.06000
H1468       H  0.39322475  0.81624219  0.84062550     0.09200
H1469       H  0.32489023  0.83816776  0.84574584     0.09200
H1470       H  0.32755258  0.57042139  0.79964525     0.09200
H1471       H  0.30427965  0.59443677  0.76609857     0.09200
H1472       H  0.25836528  0.58715625  0.79496362     0.06000
C1473       C  0.64218633  0.62968078  0.63855908    -0.19800
C1474       C  0.64555611  0.68622368  0.64410773    -0.06400
C1475       C  0.59668993  0.71460762  0.65254291     0.14500
C1476       C  0.54828457  0.68512687  0.65552351    -0.19900
C1477       C  0.54526799  0.62916806  0.64913246    -0.06400
C1478       C  0.59286124  0.60132056  0.63965148     0.14500
C1479       C  0.59331280  0.54175660  0.63062685    -0.23200
H1480       H  0.67717277  0.60802121  0.63012876     0.15800
H1481       H  0.51175886  0.70644718  0.66264214     0.15800
C1482       C  0.59161409  0.77629286  0.65584315    -0.23200
H1483       H  0.63359133  0.52865320  0.62188583     0.06000
H1484       H  0.56333802  0.53429388  0.61405514     0.09200
H1485       H  0.58441054  0.51614760  0.64892643     0.09200
H1486       H  0.60860656  0.79754321  0.63734288     0.09200
H1487       H  0.61024771  0.79098624  0.67534658     0.09200
H1488       H  0.54850199  0.78934265  0.65786915     0.06000
C1489       C  0.81325047  0.79226035  0.55211643    -0.19800
C1490       C  0.77363218  0.81198677  0.57089399    -0.06400
C1491       C  0.74669369  0.86236362  0.56526359     0.14500
C1492       C  0.76658018  0.89406964  0.54365458    -0.19900
C1493       C  0.81126449  0.87698476  0.52777191    -0.06400
C1494       C  0.83251825  0.82417055  0.53063220     0.14500
C1495       C  0.87760504  0.80209883  0.51209601    -0.23200
H1496       H  0.82797148  0.75114029  0.55323879     0.15800
H1497       H  0.75014601  0.93458655  0.54080744     0.15800
C1498       C  0.69567953  0.88428273  0.57994547    -0.23200
H1499       H  0.89295835  0.76233363  0.51921876     0.06000
H1500       H  0.91198308  0.83155044  0.51202377     0.09200
H1501       H  0.86204820  0.79475121  0.49096666     0.09200
H1502       H  0.70463638  0.92523143  0.58939123     0.09200
H1503       H  0.67725861  0.85834565  0.59620398     0.09200
H1504       H  0.66377691  0.88926661  0.56431522     0.06000
C1505       C  0.35880766  0.30924341  0.67521081    -0.19800
C1506       C  0.30529215  0.32880559  0.67335505    -0.06400
C1507       C  0.27497091  0.33647062  0.69934911     0.14500
C1508       C  0.30190747  0.33430203  0.72470491    -0.19900
C1509       C  0.35659781  0.31983707  0.72564670    -0.06400
C1510       C  0.38229605  0.29944146  0.70078696     0.14500
C1511       C  0.43376377  0.26647986  0.69986814    -0.23200
H1512       H  0.38051785  0.29431995  0.65668304     0.15800
H1513       H  0.28053979  0.34612868  0.74400882     0.15800
C1514       C  0.21420327  0.34466937  0.70164672    -0.23200
H1515       H  0.42609907  0.22689674  0.68861074     0.06000
H1516       H  0.44787716  0.25579959  0.72068067     0.09200
H1517       H  0.46612489  0.28880325  0.68810396     0.09200
H1518       H  0.19196138  0.31396439  0.68878382     0.09200
H1519       H  0.19834139  0.33968873  0.72339022     0.09200
H1520       H  0.20435721  0.38694712  0.69616674     0.06000
C1521       C  0.19216130  0.15171205  0.55075358    -0.19800
C1522       C  0.15254140  0.17985998  0.53653652    -0.06400
C1523       C  0.14517155  0.23607389  0.54116496     0.14500
C1524       C  0.17234460  0.26050649  0.56294579    -0.19900
C1525       C  0.19947979  0.22854293  0.58212144    -0.06400
C1526       C  0.21656977  0.17550607  0.57345313     0.14500
C1527       C  0.26174247  0.14332663  0.58591697    -0.23200
H1528       H  0.20194580  0.10944387  0.54543303     0.15800
H1529       H  0.17238253  0.30470046  0.56451039     0.15800
C1530       C  0.10959848  0.27118234  0.52413567    -0.23200
H1531       H  0.24427210  0.10684682  0.59623927     0.06000
H1532       H  0.28664101  0.16665120  0.60095733     0.09200
H1533       H  0.29063411  0.12929001  0.56902720     0.09200
H1534       H  0.13432359  0.30495811  0.51494994     0.09200
H1535       H  0.07669946  0.28914538  0.53773197     0.09200
H1536       H  0.09063382  0.24789869  0.50694223     0.06000
loop_ 
_geom_bond_atom_site_label_1 
_geom_bond_atom_site_label_2 
_geom_bond_distance 
_geom_bond_site_symmetry_2 
_ccdc_geom_bond_type 
C1            C3   1.570       .  S
C1            C5   1.558       .  S
C1            C4   1.572       .  S
C1          C757   1.511       .  S
C2            C6   1.590       .  S
C2            C8   1.583       .  S
C2            C7   1.561       .  S
C2          C738   1.523       .  S
C3           C11   1.405       .  A
C3            C6   1.385       .  A
C4           C15   1.425       .  A
C4            C7   1.369       .  A
C5           C19   1.399       .  A
C5            C8   1.373       .  A
C6            C9   1.425       .  A
C7           C13   1.399       .  A
C8           C16   1.427       .  A
C9           N10   1.380       .  A
C9           H22   1.081       .  S
N10          C11   1.366       .  A
N10          C44   1.501       .  S
C11          H12   1.082       .  S
C13          N14   1.355       .  A
C13          H23   1.080       .  S
N14          C15   1.382       .  A
N14         C104   1.493       .  S
C15          H21   1.081       .  S
C16          N17   1.385       .  A
C16          H18   1.082       .  S
N17          C19   1.360       .  A
N17         C285   1.497       .  S
C19          H20   1.081       .  S
N24          C29   1.373       .  A
N24          C28   1.378       .  A
N24          H56   1.040       .  S
N25          C32   1.373   1_655  A
N25          C33   1.372       .  A
N26          C31   1.377       .  A
N26          C30   1.373       .  A
N26          H57   1.039       .  S
N27          C34   1.371   1_655  A
N27          C35   1.372       .  A
C28          C36   1.385       .  A
C28          C44   1.453       .  A
C29          C45   1.458       .  A
C29          C37   1.388       .  A
C30          C38   1.388       .  A
C30          C47   1.455       .  A
C31          C46   1.457       .  A
C31          C39   1.387       .  A
C32          C44   1.451       .  A
C32          C40   1.387       .  A
C33          C47   1.449       .  A
C33          C41   1.386       .  A
C34          C42   1.385   1_455  A
C34          C45   1.445       .  A
C35          C43   1.388       .  A
C35          C46   1.450       .  A
C36          C37   1.387       .  A
C36          H48   1.082       .  S
C37          H49   1.080       .  S
C38          C39   1.387       .  A
C38          H50   1.082       .  S
C39          H51   1.081       .  S
C40          C41   1.379   1_455  A
C40          H52   1.081       .  S
C41          H53   1.081       .  S
C42          C43   1.382       .  A
C42          H54   1.082   1_655  S
C43          H55   1.081       .  S
C45         N375   1.494       .  S
C46          N67   1.501       .  S
C47         N329   1.491       .  S
C58          C60   1.588       .  S
C58          C62   1.546       .  S
C58          C61   1.546       .  S
C58         C722   1.498       .  S
C59          C63   1.584       .  S
C59          C65   1.561       .  S
C59          C64   1.560       .  S
C59         C706   1.508       .  S
C60          C68   1.412       .  A
C60          C63   1.399       .  A
C61          C72   1.393       .  A
C61          C64   1.367       .  A
C62          C76   1.409       .  A
C62          C65   1.358       .  A
C63          C66   1.412       .  A
C64          C70   1.413       .  A
C65          C73   1.403       .  A
C66          N67   1.376       .  A
C66          H79   1.082       .  S
N67          C68   1.377       .  A
C68          H69   1.081       .  S
C70          N71   1.375       .  A
C70          H80   1.081       .  S
N71          C72   1.359       .  A
N71         C136   1.482       .  S
C72          H78   1.082       .  S
C73          N74   1.359       .  A
C73          H75   1.080       .  S
N74          C76   1.372       .  A
N74         C252   1.480       .  S
C76          H77   1.082       .  S
N81          C86   1.380       .  A
N81          C85   1.381       .  A
N81         H113   1.039       .  S
N82          C89   1.370   1_545  A
N82          C90   1.370       .  A
N83          C88   1.374       .  A
N83          C87   1.373       .  A
N83         H114   1.040       .  S
N84          C91   1.375   1_545  A
N84          C92   1.374       .  A
C85          C93   1.387       .  A
C85         C101   1.466       .  A
C86         C102   1.471       .  A
C86          C94   1.391       .  A
C87          C95   1.390       .  A
C87         C104   1.457       .  A
C88         C103   1.448       .  A
C88          C96   1.385       .  A
C89         C101   1.444       .  A
C89          C97   1.387   1_565  A
C90         C104   1.440       .  A
C90          C98   1.384       .  A
C91          C99   1.385   1_565  A
C91         C102   1.452       .  A
C92         C100   1.388       .  A
C92         C103   1.457       .  A
C93          C94   1.393       .  A
C93         H105   1.082       .  S
C94         H106   1.082       .  S
C95          C96   1.385       .  A
C95         H107   1.081       .  S
C96         H108   1.082       .  S
C97          C98   1.379       .  A
C97         H109   1.081   1_545  S
C98         H110   1.081       .  S
C99         C100   1.383       .  A
C99         H111   1.081   1_545  S
C100        H112   1.080       .  S
C101        N379   1.503       .  S
C102        N162   1.508       .  S
C103        N356   1.499       .  S
N115        C120   1.367   1_545  A
N115        C119   1.369       .  A
N115        H147   1.042   1_545  S
N116        C123   1.377       .  A
N116        C124   1.375       .  A
N117        C122   1.373   1_545  A
N117        C121   1.369       .  A
N117        H148   1.041       .  S
N118        C125   1.367       .  A
N118        C126   1.368       .  A
C119        C127   1.384       .  A
C119        C135   1.436       .  A
C120        C136   1.444       .  A
C120        C128   1.389       .  A
C121        C129   1.389       .  A
C121        C138   1.449       .  A
C122        C137   1.446       .  A
C122        C130   1.385       .  A
C123        C135   1.461       .  A
C123        C131   1.388       .  A
C124        C138   1.456       .  A
C124        C132   1.386       .  A
C125        C133   1.384       .  A
C125        C136   1.436       .  A
C126        C134   1.387       .  A
C126        C137   1.442       .  A
C127        C128   1.383   1_545  A
C127        H139   1.082       .  S
C128        H140   1.081       .  S
C129        C130   1.383   1_545  A
C129        H141   1.081       .  S
C130        H142   1.081       .  S
C131        C132   1.385       .  A
C131        H143   1.082       .  S
C132        H144   1.082       .  S
C133        C134   1.380       .  A
C133        H145   1.082       .  S
C134        H146   1.082       .  S
C135        N336   1.498       .  S
C137        N313   1.492       .  S
C138        N222   1.493       .  S
C149        C151   1.591       .  S
C149        C153   1.569       .  S
C149        C152   1.603       .  S
C149        C677   1.509       .  S
C150        C154   1.582       .  S
C150        C156   1.549       .  S
C150        C155   1.545       .  S
C150        C693   1.470       .  S
C151        C159   1.419       .  A
C151        C154   1.389       .  A
C152        C163   1.441       .  A
C152        C155   1.367       .  A
C153        C167   1.410       .  A
C153        C156   1.349       .  A
C154        C157   1.417       .  A
C155        C161   1.399       .  A
C156        C164   1.416       .  A
C157        N158   1.370       .  A
C157        H170   1.080       .  S
N158        C159   1.377       .  A
N158        C192   1.500       .  S
C159        H160   1.082       .  S
C161        N162   1.356       .  A
C161        H171   1.082       .  S
N162        C163   1.393       .  A
C163        H169   1.080       .  S
C164        N165   1.378       .  A
C164        H166   1.082       .  S
N165        C167   1.364       .  A
N165        C250   1.496       .  S
C167        H168   1.080       .  S
N172        C177   1.377       .  A
N172        C176   1.375       .  A
N172        H204   1.040       .  S
N173        C180   1.375   1_655  A
N173        C181   1.376       .  A
N174        C179   1.369       .  A
N174        C178   1.371       .  A
N174        H205   1.041       .  S
N175        C182   1.371   1_655  A
N175        C183   1.371       .  A
C176        C184   1.387       .  A
C176        C192   1.457       .  A
C177        C193   1.459       .  A
C177        C185   1.388       .  A
C178        C186   1.385       .  A
C178        C195   1.440       .  A
C179        C194   1.445       .  A
C179        C187   1.386       .  A
C180        C192   1.454       .  A
C180        C188   1.386       .  A
C181        C195   1.458       .  A
C181        C189   1.388       .  A
C182        C190   1.386       .  A
C182        C193   1.446       .  A
C183        C191   1.385       .  A
C183        C194   1.444       .  A
C184        C185   1.390       .  A
C184        H196   1.082       .  S
C185        H197   1.081       .  S
C186        C187   1.383       .  A
C186        H198   1.082       .  S
C187        H199   1.080       .  S
C188        C189   1.385   1_455  A
C188        H200   1.082       .  S
C189        H201   1.081       .  S
C190        C191   1.381   1_455  A
C190        H202   1.081       .  S
C191        H203   1.082       .  S
C193        N352   1.501       .  S
C194        N215   1.489       .  S
C195        N306   1.496       .  S
C206        C208   1.555       .  S
C206        C210   1.577       .  S
C206        C209   1.547       .  S
C206        C658   1.481       .  S
C207        C211   1.563       .  S
C207        C213   1.562       .  S
C207        C212   1.598       .  S
C207        C642   1.499       .  S
C208        C216   1.403       .  A
C208        C211   1.371       .  A
C209        C220   1.403       .  A
C209        C212   1.383       .  A
C210        C224   1.418       .  A
C210        C213   1.362       .  A
C211        C214   1.408       .  A
C212        C218   1.424       .  A
C213        C221   1.410       .  A
C214        N215   1.374       .  A
C214        H227   1.082       .  S
N215        C216   1.369       .  A
C216        H217   1.081       .  S
C218        N219   1.378       .  A
C218        H228   1.074       .  S
N219        C220   1.364       .  A
N219        C283   1.496       .  S
C220        H226   1.082       .  S
C221        N222   1.369       .  A
C221        H223   1.082       .  S
N222        C224   1.368       .  A
C224        H225   1.079       .  S
N229        C234   1.370       .  A
N229        C233   1.373       .  A
N229        H261   1.041       .  S
N230        C237   1.375       .  A
N230       C1006   1.374       .  A
N231        C236   1.376       .  A
N231        C235   1.370       .  A
N231        H262   1.040       .  S
N232        C239   1.374       .  A
N232       C1008   1.376       .  A
C233        C241   1.386       .  A
C233        C249   1.446       .  A
C234        C250   1.446       .  A
C234        C242   1.386       .  A
C235        C243   1.389       .  A
C235        C252   1.452       .  A
C236        C251   1.452       .  A
C236        C244   1.386       .  A
C237        C249   1.453       .  A
C237        C245   1.386       .  A
C238        C252   1.437       .  A
C238        C246   1.385   1_554  A
C238        N998   1.366   1_554  A
C239        C247   1.387       .  A
C239        C250   1.456       .  A
C240        C248   1.384       .  A
C240        C251   1.448       .  A
C240       N1000   1.374   1_554  A
C241        C242   1.385       .  A
C241        H253   1.082       .  S
C242        H254   1.079       .  S
C243        C244   1.388       .  A
C243        H255   1.082       .  S
C244        H256   1.081       .  S
C245       C1014   1.384       .  A
C245        H257   1.082       .  S
C246       C1013   1.377       .  A
C246        H258   1.082   1_556  S
C247       C1016   1.384       .  A
C247        H259   1.081       .  S
C248       C1015   1.383   1_554  A
C248        H260   1.082       .  S
C249        N310   1.499       .  S
C251        N382   1.505       .  S
N263        C267   1.371       .  A
N263       C1036   1.369       .  A
N263        H295   1.041       .  S
N264        C271   1.375       .  A
N264        C272   1.373       .  A
N265        C269   1.376       .  A
N265       C1038   1.377       .  A
N265        H296   1.040       .  S
N266        C273   1.368       .  A
N266        C274   1.372       .  A
C267        C275   1.386       .  A
C267        C283   1.444       .  A
C268        C284   1.453       .  A
C268        C276   1.389       .  A
C268       N1031   1.370   1_554  A
C269        C277   1.386       .  A
C269        C286   1.455       .  A
C270        C285   1.453       .  A
C270        C278   1.386       .  A
C270       N1033   1.375   1_554  A
C271        C283   1.452       .  A
C271        C279   1.385       .  A
C272        C286   1.455       .  A
C272        C280   1.388       .  A
C273        C281   1.387       .  A
C273        C284   1.448       .  A
C274        C282   1.383       .  A
C274        C285   1.441       .  A
C275       C1044   1.381       .  A
C275        H287   1.082       .  S
C276       C1043   1.384   1_554  A
C276        H288   1.080       .  S
C277       C1046   1.388       .  A
C277        H289   1.082       .  S
C278       C1045   1.385   1_554  A
C278        H290   1.082       .  S
C279        C280   1.385       .  A
C279        H291   1.082       .  S
C280        H292   1.082       .  S
C281        C282   1.379       .  A
C281        H293   1.076       .  S
C282        H294   1.081       .  S
C284        N333   1.490       .  S
C286        N359   1.498       .  S
C297        C299   1.559       .  S
C297        C301   1.545       .  S
C297        C300   1.565       .  S
C297        C626   1.492       .  S
C298        C302   1.593       .  S
C298        C304   1.563       .  S
C298        C303   1.595       .  S
C298        C610   1.530       .  S
C299        C307   1.402       .  A
C299        C302   1.380       .  A
C300        C311   1.405       .  A
C300        C303   1.389       .  A
C301        C315   1.409       .  A
C301        C304   1.363       .  A
C302        C305   1.428       .  A
C303        C309   1.424       .  A
C304        C312   1.404       .  A
C305        N306   1.382       .  A
C305        H318   1.079       .  S
N306        C307   1.357       .  A
C307        H308   1.080       .  S
C309        N310   1.380       .  A
C309        H319   1.082       .  S
N310        C311   1.363       .  A
C311        H317   1.074       .  S
C312        N313   1.370       .  A
C312        H314   1.082       .  S
N313        C315   1.374       .  A
C315        H316   1.082       .  S
C320        C322   1.579       .  S
C320        C324   1.600       .  S
C320        C323   1.559       .  S
C320        C581   1.510       .  S
C321        C325   1.575       .  S
C321        C327   1.541       .  S
C321        C326   1.537       .  S
C321        C594   1.477       .  S
C322        C330   1.406       .  A
C322        C325   1.389       .  A
C323        C334   1.403       .  A
C323        C326   1.351       .  A
C324        C338   1.437       .  A
C324        C327   1.374       .  A
C325        C328   1.413       .  A
C326        C332   1.404       .  A
C327        C335   1.390       .  A
C328        N329   1.371       .  A
C328        H341   1.080       .  S
N329        C330   1.371       .  A
C330        H331   1.081       .  S
C332        N333   1.373       .  A
C332        H342   1.082       .  S
N333        C334   1.368       .  A
C334        H340   1.081       .  S
C335        N336   1.350       .  A
C335        H337   1.082       .  S
N336        C338   1.394       .  A
C338        H339   1.082       .  S
C343        C345   1.580       .  S
C343        C347   1.562       .  S
C343        C346   1.586       .  S
C343        C546   1.506       .  S
C344        C348   1.590       .  S
C344        C350   1.561       .  S
C344        C349   1.561       .  S
C344        C562   1.509       .  S
C345        C353   1.410       .  A
C345        C348   1.403       .  A
C346        C357   1.428       .  A
C346        C349   1.367       .  A
C347        C361   1.416       .  A
C347        C350   1.345       .  A
C348        C351   1.416       .  A
C349        C355   1.401       .  A
C350        C358   1.423       .  A
C351        N352   1.378       .  A
C351        H364   1.076       .  S
N352        C353   1.370       .  A
C353        H354   1.080       .  S
C355        N356   1.362       .  A
C355        H365   1.082       .  S
N356        C357   1.383       .  A
C357        H363   1.082       .  S
C358        N359   1.375       .  A
C358        H360   1.082       .  S
N359        C361   1.366       .  A
C361        H362   1.079       .  S
C366        C368   1.547       .  S
C366        C370   1.570       .  S
C366        C369   1.566       .  S
C366        C533   1.484       .  S
C367        C371   1.588       .  S
C367        C373   1.589       .  S
C367        C372   1.583       .  S
C367        C514   1.517       .  S
C368        C376   1.393       .  A
C368        C371   1.375       .  A
C369        C380   1.421       .  A
C369        C372   1.363       .  A
C370        C384   1.418       .  A
C370        C373   1.376       .  A
C371        C374   1.430       .  A
C372        C378   1.418       .  A
C373        C381   1.417       .  A
C374        N375   1.385       .  A
C374        H387   1.079       .  S
N375        C376   1.356       .  A
C376        H377   1.082       .  S
C378        N379   1.377       .  A
C378        H388   1.081       .  S
N379        C380   1.370       .  A
C380        H386   1.082       .  S
C381        N382   1.375       .  A
C381        H383   1.082       .  S
N382        C384   1.377       .  A
C384        H385   1.081       .  S
O389       Zr401   2.423   1_554  S
O389        C391   1.285       .  A
O390      Zr1195   2.377       .  S
O390        C391   1.274   1_556  A
C391        C754   1.448       .  S
O392       Zr404   2.379   1_565  S
O392        C394   1.274       .  A
O393      Zr1196   2.390   1_564  S
O393        C394   1.280       .  A
C394        C725   1.439       .  S
O395       Zr404   2.424   1_455  S
O395        C397   1.274       .  A
O396      Zr1195   2.414   1_554  S
O396        C397   1.274       .  A
C397        C517   1.473   1_545  S
O398       Zr401   2.440   1_655  S
O398        C400   1.290       .  A
O399      Zr1196   2.379       .  S
O399        C400   1.276       .  A
C400        C578   1.466   1_556  S
Zr401       O402   2.436   1_455  S
Zr401       O403   2.437       .  S
Zr401       O407   2.380   1_556  S
Zr401       O408   2.385   1_456  S
Zr401      O1201   2.347       .  S
Zr401      O1199   2.253   1_455  S
O402        H445   0.990   1_556  S
O403        H444   0.990   1_455  S
O403        H448   0.990       .  S
Zr404       O405   2.444       .  S
Zr404       O406   2.437       .  S
Zr404       O408   2.321       .  S
Zr404       O407   2.349   1_655  S
Zr404      O1200   2.370   1_645  S
Zr404      O1202   2.310   1_545  S
O405        H446   0.991       .  S
O405        H449   0.990       .  S
O406        H439   0.990       .  S
O407      Zr1195   2.398   1_554  S
O408      Zr1196   2.385   1_554  S
O408        H435   0.961       .  S
O409       Zr421   2.414   1_655  S
O409        C411   1.282       .  A
O410       Zr428   2.404   1_545  S
O410        C411   1.276       .  A
C411        C645   1.457       .  S
O412       Zr424   2.427       .  S
O412        C414   1.265       .  A
O413       Zr427   2.430   1_565  S
O413        C414   1.278       .  A
C414        C674   1.458       .  S
O415       Zr424   2.429   1_655  S
O415        C417   1.284       .  A
O416       Zr428   2.309       .  S
O416        C417   1.268       .  A
C417        C629   1.428       .  S
O418       Zr421   2.444       .  S
O418        C420   1.280       .  A
O419       Zr427   2.383       .  S
O419        C420   1.271       .  A
C420        C565   1.456       .  S
Zr421       O422   2.436   1_545  S
Zr421       O423   2.437       .  S
Zr421       O429   2.350   1_445  S
Zr421       O430   2.373   1_545  S
Zr421       O433   2.342       .  S
Zr421       O431   2.292   1_455  S
O422        H442   0.990       .  S
O422        H447   0.990       .  S
O423        H443   0.989       .  S
Zr424       O425   2.417       .  S
Zr424       O426   2.441       .  S
Zr424       O430   2.383       .  S
Zr424       O429   2.393   1_455  S
Zr424       O434   2.330   1_455  S
Zr424       O432   2.405       .  S
O425        H441   0.989       .  S
O426        H440   0.989       .  S
O426        H450   0.989       .  S
Zr427      O1158   2.324       .  S
Zr427      O1164   2.398       .  S
Zr427       O430   2.398   1_545  S
Zr427       O432   2.399   1_545  S
Zr427       O433   2.402       .  S
Zr427      O1175   2.385       .  S
Zr428      O1161   2.376       .  S
Zr428      O1167   2.399   1_565  S
Zr428       O429   2.381       .  S
Zr428       O434   2.357       .  S
Zr428      O1176   2.396   1_565  S
Zr428       O431   2.257   1_565  S
O429        H437   0.964       .  S
O431      Zr1169   2.278       .  S
O432      Zr1172   2.361   1_455  S
O432        H436   0.964       .  S
O433      Zr1169   2.359   1_455  S
O433        H438   0.955       .  S
O434      Zr1172   2.359       .  S
O451       Zr463   2.383       .  S
O451        C453   1.276       .  A
O452       Zr489   2.351       .  S
O452        C453   1.276       .  A
C453        C549   1.452       .  S
O454       Zr466   2.397       .  S
O454        C456   1.277       .  A
O455       Zr490   2.368       .  S
O455        C456   1.278       .  A
C456        C530   1.416       .  S
O457       Zr466   2.426       .  S
O457        C459   1.273       .  A
O458       Zr489   2.407       .  S
O458        C459   1.268       .  A
C459        C741   1.480       .  S
O460       Zr463   2.379       .  S
O460        C462   1.277       .  A
O461       Zr490   2.380       .  S
O461        C462   1.277       .  A
C462        C690   1.406       .  S
Zr463       O464   2.439       .  S
Zr463       O465   2.433       .  S
Zr463       O470   2.360       .  S
Zr463       O493   2.332       .  S
Zr463       O495   2.334       .  S
Zr463       O469   2.287       .  S
O464        H507   0.989       .  S
O465        H506   0.990       .  S
O465        H510   0.990       .  S
Zr466       O467   2.439       .  S
Zr466       O468   2.421       .  S
Zr466       O470   2.326       .  S
Zr466       O494   2.350       .  S
Zr466       O496   2.379       .  S
Zr466       O469   2.281       .  S
O467        H508   0.990       .  S
O467        H511   0.990       .  S
O468        H501   0.990       .  S
O469       Zr489   2.259       .  S
O470       Zr490   2.366       .  S
O470        H497   0.951       .  S
O471       Zr483   2.419       .  S
O471        C473   1.268       .  A
O472       Zr490   2.444       .  S
O472        C473   1.280       .  A
C473        C613   1.483       .  S
O474       Zr486   2.409       .  S
O474        C476   1.281       .  A
O475       Zr489   2.354       .  S
O475        C476   1.268       .  A
C476        C597   1.420       .  S
O477       Zr486   2.404       .  S
O477        C479   1.280       .  A
O478       Zr490   2.381       .  S
O478        C479   1.284       .  A
C479        C709   1.462       .  S
O480       Zr483   2.415       .  S
O480        C482   1.284       .  A
O481       Zr489   2.306       .  S
O481        C482   1.265       .  A
C482        C661   1.423       .  S
Zr483       O484   2.435       .  S
Zr483       O485   2.432       .  S
Zr483       O491   2.378       .  S
Zr483       O492   2.346       .  S
Zr483       O495   2.374       .  S
Zr483       O493   2.369       .  S
O484        H504   0.990       .  S
O484        H509   0.990       .  S
O485        H505   0.990       .  S
Zr486       O487   2.432       .  S
Zr486       O488   2.436       .  S
Zr486       O492   2.351       .  S
Zr486       O491   2.369       .  S
Zr486       O496   2.353       .  S
Zr486       O494   2.336       .  S
O487        H503   0.991       .  S
O488        H502   0.990       .  S
O488        H512   0.990       .  S
Zr489       O492   2.357       .  S
Zr489       O494   2.377       .  S
Zr489       O495   2.378       .  S
Zr490       O491   2.389       .  S
Zr490       O493   2.384       .  S
Zr490       O496   2.379       .  S
O491        H499   0.964       .  S
O494        H498   0.956       .  S
O495        H500   0.965       .  S
C513        C514   1.418       .  A
C513        C518   1.388       .  A
C513        H520   1.073       .  S
C514        C515   1.421       .  A
C515        C522   1.507       .  S
C515        C516   1.395       .  A
C516        C517   1.402       .  A
C516        H521   1.073       .  S
C517        C518   1.400       .  A
C518        C519   1.509       .  S
C519        H523   1.111       .  S
C519        H524   1.106   1_565  S
C519        H525   1.106   1_565  S
C522        H526   1.111       .  S
C522        H527   1.108       .  S
C522        H528   1.103       .  S
C529        C530   1.393       .  A
C529        C534   1.384       .  A
C529        H536   1.086       .  S
C530        C531   1.393       .  A
C531        C538   1.497       .  S
C531        C532   1.371       .  A
C532        C533   1.407       .  A
C532        H537   1.078       .  S
C533        C534   1.423       .  A
C534        C535   1.511       .  S
C535        H539   1.109       .  S
C535        H540   1.110       .  S
C535        H541   1.104       .  S
C538        H542   1.105       .  S
C538        H543   1.108       .  S
C538        H544   1.112       .  S
C545        C546   1.418       .  A
C545        C550   1.383       .  A
C545        H552   1.077       .  S
C546        C547   1.436       .  A
C547        C554   1.509       .  S
C547        C548   1.397       .  A
C548        C549   1.395       .  A
C548        H553   1.085       .  S
C549        C550   1.398       .  A
C550        C551   1.509       .  S
C551        H555   1.110       .  S
C551        H556   1.111       .  S
C551        H557   1.112       .  S
C554        H558   1.108       .  S
C554        H559   1.104       .  S
C554        H560   1.111       .  S
C561        C562   1.426       .  A
C561        C566   1.374       .  A
C561        H568   1.081       .  S
C562        C563   1.407       .  A
C563        C570   1.500       .  S
C563        C564   1.399       .  A
C564        C565   1.407       .  A
C564        H569   1.069       .  S
C565        C566   1.383       .  A
C566        C567   1.500       .  S
C567        H571   1.111       .  S
C567        H572   1.109       .  S
C567        H573   1.107       .  S
C570        H574   1.104       .  S
C570        H575   1.109       .  S
C570        H576   1.101       .  S
C577        C578   1.390       .  A
C577        C582   1.390       .  A
C577        H584   1.085       .  S
C578        C579   1.409       .  A
C579        C586   1.503       .  S
C579        C580   1.397       .  A
C580        C581   1.408       .  A
C580        H585   1.084       .  S
C581        C582   1.443       .  A
C582        C583   1.515       .  S
C583        H587   1.111       .  S
C583        H588   1.103       .  S
C583        H589   1.108       .  S
C586        H590   1.102       .  S
C586        H591   1.110       .  S
C586        H592   1.111       .  S
C593        C594   1.380       .  A
C593        C598   1.369       .  A
C593        H600   1.071       .  S
C594        C595   1.441       .  A
C595        C602   1.518       .  S
C595        C596   1.382       .  A
C596        C597   1.379       .  A
C596        H601   1.086       .  S
C597        C598   1.411       .  A
C598        C599   1.497       .  S
C599        H603   1.111       .  S
C599        H604   1.103       .  S
C599        H605   1.100       .  S
C602        H606   1.111       .  S
C602        H607   1.101       .  S
C602        H608   1.108       .  S
C609        C610   1.412       .  A
C609        C614   1.400       .  A
C609        H616   1.076       .  S
C610        C611   1.433       .  A
C611        C618   1.509       .  S
C611        C612   1.401       .  A
C612        C613   1.399       .  A
C612        H617   1.085       .  S
C613        C614   1.411       .  A
C614        C615   1.503       .  S
C615        H619   1.111       .  S
C615        H620   1.101       .  S
C615        H621   1.110       .  S
C618        H622   1.103       .  S
C618        H623   1.107       .  S
C618        H624   1.111       .  S
C625        C626   1.401       .  A
C625        C630   1.385       .  A
C625        H632   1.085       .  S
C626        C627   1.398       .  A
C627        C634   1.509       .  S
C627        C628   1.384       .  A
C628        C629   1.408       .  A
C628        H633   1.086       .  S
C629        C630   1.405       .  A
C630        C631   1.508       .  S
C631        H635   1.110       .  S
C631        H636   1.110       .  S
C631        H637   1.107       .  S
C634        H638   1.110       .  S
C634        H639   1.110       .  S
C634        H640   1.111       .  S
C641        C642   1.415       .  A
C641        C646   1.394       .  A
C641        H648   1.085       .  S
C642        C643   1.384       .  A
C643        C650   1.497       .  S
C643        C644   1.387       .  A
C644        C645   1.405       .  A
C644        H649   1.072       .  S
C645        C646   1.407       .  A
C646        C647   1.508       .  S
C647        H651   1.111       .  S
C647        H652   1.108       .  S
C647        H653   1.110       .  S
C650        H654   1.110       .  S
C650        H655   1.106       .  S
C650        H656   1.099       .  S
C657        C658   1.389       .  A
C657        C662   1.372       .  A
C657        H664   1.082       .  S
C658        C659   1.406       .  A
C659        C666   1.504       .  S
C659        C660   1.383       .  A
C660        C661   1.399       .  A
C660        H665   1.086       .  S
C661        C662   1.413       .  A
C662        C663   1.512       .  S
C663        H667   1.111       .  S
C663        H668   1.107       .  S
C663        H669   1.103       .  S
C666        H670   1.107       .  S
C666        H671   1.110       .  S
C666        H672   1.107       .  S
C673        C674   1.392       .  A
C673        C678   1.396       .  A
C673        H680   1.083       .  S
C674        C675   1.403       .  A
C675        C682   1.509       .  S
C675        C676   1.392       .  A
C676        C677   1.420       .  A
C676        H681   1.078       .  S
C677        C678   1.429       .  A
C678        C679   1.506       .  S
C679        H683   1.106       .  S
C679        H684   1.105       .  S
C679        H685   1.103       .  S
C682        H686   1.108       .  S
C682        H687   1.110       .  S
C682        H688   1.109       .  S
C689        C690   1.382       .  A
C689        C694   1.381       .  A
C689        H696   1.086       .  S
C690        C691   1.414       .  A
C691        C698   1.510       .  S
C691        C692   1.365       .  A
C692        C693   1.382       .  A
C692        H697   1.071       .  S
C693        C694   1.434       .  A
C694        C695   1.516       .  S
C695        H699   1.111       .  S
C695        H700   1.109       .  S
C695        H701   1.102       .  S
C698        H702   1.108       .  S
C698        H703   1.099       .  S
C698        H704   1.111       .  S
C705        C706   1.409       .  A
C705        C710   1.392       .  A
C705        H712   1.080       .  S
C706        C707   1.442       .  A
C707        C714   1.514       .  S
C707        C708   1.392       .  A
C708        C709   1.392       .  A
C708        H713   1.085       .  S
C709        C710   1.406       .  A
C710        C711   1.505       .  S
C711        H715   1.111       .  S
C711        H716   1.109       .  S
C711        H717   1.108       .  S
C714        H718   1.108       .  S
C714        H719   1.103       .  S
C714        H720   1.111       .  S
C721        C722   1.397       .  A
C721        C726   1.385       .  A
C721        H728   1.075       .  S
C722        C723   1.441       .  A
C723        C730   1.519       .  S
C723        C724   1.386       .  A
C724        C725   1.385       .  A
C724        H729   1.082       .  S
C725        C726   1.411       .  A
C726        C727   1.509       .  S
C727        H731   1.108       .  S
C727        H732   1.107       .  S
C727        H733   1.111       .  S
C730        H734   1.111       .  S
C730        H735   1.103       .  S
C730        H736   1.110       .  S
C737        C738   1.416       .  A
C737        C742   1.400       .  A
C737        H744   1.079       .  S
C738        C739   1.440       .  A
C739        C746   1.510       .  S
C739        C740   1.398       .  A
C740        C741   1.392       .  A
C740        H745   1.084       .  S
C741        C742   1.413       .  A
C742        C743   1.509       .  S
C743        H747   1.111       .  S
C743        H748   1.106       .  S
C743        H749   1.109       .  S
C746        H750   1.108       .  S
C746        H751   1.111       .  S
C746        H752   1.102       .  S
C753        C754   1.396       .  A
C753        C758   1.394       .  A
C753        H760   1.083       .  S
C754        C755   1.395       .  A
C755        C762   1.508       .  S
C755        C756   1.384       .  A
C756        C757   1.416       .  A
C756        H761   1.074       .  S
C757        C758   1.427       .  A
C758        C759   1.510       .  S
C759        H763   1.105       .  S
C759        H764   1.106       .  S
C759        H765   1.109       .  S
C762        H766   1.110   1_554  S
C762        H767   1.110       .  S
C762        H768   1.110       .  S
C769        C771   1.550       .  S
C769        C773   1.542       .  S
C769        C772   1.553       .  S
C769       C1525   1.474       .  S
C770        C774   1.598       .  S
C770        C776   1.605       .  S
C770        C775   1.563       .  S
C770       C1506   1.526       .  S
C771        C779   1.395       .  A
C771        C774   1.383       .  A
C772        C783   1.416       .  A
C772        C775   1.362       .  A
C773        C787   1.393       .  A
C773        C776   1.372       .  A
C774        C777   1.427       .  A
C775        C781   1.397       .  A
C776        C784   1.439       .  A
C777        N778   1.383       .  A
C777        H790   1.081       .  S
N778        C779   1.356       .  A
N778        C812   1.490       .  S
C779        H780   1.081       .  S
C781        N782   1.358       .  A
C781        H791   1.081       .  S
N782        C783   1.377       .  A
N782        C872   1.485       .  S
C783        H789   1.082       .  S
C784        N785   1.393       .  A
C784        H786   1.081       .  S
N785        C787   1.356       .  A
N785       C1053   1.504       .  S
C787        H788   1.082       .  S
N792        C797   1.365       .  A
N792        C796   1.370       .  A
N792        H824   1.041       .  S
N793        C800   1.372   1_655  A
N793        C801   1.369       .  A
N794        C799   1.376       .  A
N794        C798   1.372       .  A
N794        H825   1.039       .  S
N795        C802   1.370   1_655  A
N795        C803   1.372       .  A
C796        C804   1.384       .  A
C796        C812   1.437       .  A
C797        C813   1.442       .  A
C797        C805   1.389       .  A
C798        C806   1.389       .  A
C798        C815   1.456       .  A
C799        C814   1.453       .  A
C799        C807   1.385       .  A
C800        C812   1.449       .  A
C800        C808   1.387       .  A
C801        C815   1.446       .  A
C801        C809   1.387       .  A
C802        C810   1.384   1_455  A
C802        C813   1.445       .  A
C803        C811   1.386       .  A
C803        C814   1.448       .  A
C804        C805   1.384       .  A
C804        H816   1.082       .  S
C805        H817   1.082       .  S
C806        C807   1.386       .  A
C806        H818   1.081       .  S
C807        H819   1.081       .  S
C808        C809   1.382   1_455  A
C808        H820   1.082       .  S
C809        H821   1.082       .  S
C810        C811   1.383       .  A
C810        H822   1.079   1_655  S
C811        H823   1.082       .  S
C813       N1143   1.483       .  S
C814        N835   1.501       .  S
C815       N1097   1.488       .  S
C826        C828   1.585       .  S
C826        C830   1.540       .  S
C826        C829   1.549       .  S
C826       C1490   1.484       .  S
C827        C831   1.590       .  S
C827        C833   1.571       .  S
C827        C832   1.561       .  S
C827       C1474   1.502       .  S
C828        C836   1.413       .  A
C828        C831   1.398       .  A
C829        C840   1.398       .  A
C829        C832   1.371       .  A
C830        C844   1.406       .  A
C830        C833   1.347       .  A
C831        C834   1.417       .  A
C832        C838   1.406       .  A
C833        C841   1.420       .  A
C834        N835   1.377       .  A
C834        H847   1.082       .  S
N835        C836   1.374       .  A
C836        H837   1.080       .  S
C838        N839   1.372       .  A
C838        H848   1.081       .  S
N839        C840   1.369       .  A
N839        C904   1.486       .  S
C840        H846   1.082       .  S
C841        N842   1.377       .  A
C841        H843   1.082       .  S
N842        C844   1.364       .  A
N842       C1020   1.494       .  S
C844        H845   1.082       .  S
N849        C854   1.372       .  A
N849        C853   1.371       .  A
N849        H881   1.041       .  S
N850        C857   1.366   1_545  A
N850        C858   1.367       .  A
N851        C856   1.369       .  A
N851        C855   1.368       .  A
N851        H882   1.041       .  S
N852        C859   1.370   1_545  A
N852        C860   1.369       .  A
C853        C861   1.386       .  A
C853        C869   1.446       .  A
C854        C870   1.450       .  A
C854        C862   1.388       .  A
C855        C863   1.388       .  A
C855        C872   1.446       .  A
C856        C871   1.439       .  A
C856        C864   1.385       .  A
C857        C869   1.440       .  A
C857        C865   1.387       .  A
C858        C872   1.437       .  A
C858        C866   1.384       .  A
C859        C867   1.383   1_565  A
C859        C870   1.441       .  A
C860        C868   1.389       .  A
C860        C871   1.450       .  A
C861        C862   1.387       .  A
C861        H873   1.082       .  S
C862        H874   1.082       .  S
C863        C864   1.383       .  A
C863        H875   1.081       .  S
C864        H876   1.082       .  S
C865        C866   1.381   1_565  A
C865        H877   1.082       .  S
C866        H878   1.080       .  S
C867        C868   1.381       .  A
C867        H879   1.080   1_545  S
C868        H880   1.081       .  S
C869       N1147   1.486       .  S
C870        N930   1.491       .  S
C871       N1124   1.488       .  S
N883        C888   1.367       .  A
N883        C887   1.366   1_565  A
N883        H915   1.042       .  S
N884        C891   1.372       .  A
N884        C892   1.374       .  A
N885        C890   1.369       .  A
N885        C889   1.369   1_565  A
N885        H916   1.041       .  S
N886        C893   1.369       .  A
N886        C894   1.368       .  A
C887        C895   1.385       .  A
C887        C903   1.432       .  A
C888        C904   1.440       .  A
C888        C896   1.386       .  A
C889        C897   1.389       .  A
C889        C906   1.447       .  A
C890        C905   1.439       .  A
C890        C898   1.384       .  A
C891        C903   1.457       .  A
C891        C899   1.389       .  A
C892        C906   1.450       .  A
C892        C900   1.385       .  A
C893        C901   1.384       .  A
C893        C904   1.439       .  A
C894        C902   1.388       .  A
C894        C905   1.445       .  A
C895        C896   1.382   1_545  A
C895        H907   1.082       .  S
C896        H908   1.078       .  S
C897        C898   1.383   1_545  A
C897        H909   1.081       .  S
C898        H910   1.082       .  S
C899        C900   1.386       .  A
C899        H911   1.082       .  S
C900        H912   1.082       .  S
C901        C902   1.381       .  A
C901        H913   1.082       .  S
C902        H914   1.081       .  S
C903       N1104   1.487       .  S
C905       N1081   1.486       .  S
C906        N990   1.494       .  S
C917        C919   1.586       .  S
C917        C921   1.567       .  S
C917        C920   1.589       .  S
C917       C1445   1.512       .  S
C918        C922   1.582       .  S
C918        C924   1.543       .  S
C918        C923   1.537       .  S
C918       C1461   1.475       .  S
C919        C927   1.414       .  A
C919        C922   1.393       .  A
C920        C931   1.428       .  A
C920        C923   1.371       .  A
C921        C935   1.408       .  A
C921        C924   1.352       .  A
C922        C925   1.415       .  A
C923        C929   1.393       .  A
C924        C932   1.411       .  A
C925        N926   1.368       .  A
C925        H938   1.078       .  S
N926        C927   1.374       .  A
N926        C960   1.494       .  S
C927        H928   1.082       .  S
C929        N930   1.356       .  A
C929        H939   1.082       .  S
N930        C931   1.384       .  A
C931        H937   1.080       .  S
C932        N933   1.372       .  A
C932        H934   1.082       .  S
N933        C935   1.368       .  A
N933       C1018   1.491       .  S
C935        H936   1.081       .  S
N940        C945   1.372       .  A
N940        C944   1.373       .  A
N940        H972   1.037       .  S
N941        C948   1.372   1_655  A
N941        C949   1.371       .  A
N942        C947   1.370       .  A
N942        C946   1.372       .  A
N942        H973   1.040       .  S
N943        C950   1.371   1_655  A
N943        C951   1.372       .  A
C944        C952   1.388       .  A
C944        C960   1.453       .  A
C945        C961   1.452       .  A
C945        C953   1.387       .  A
C946        C954   1.384       .  A
C946        C963   1.442       .  A
C947        C962   1.447       .  A
C947        C955   1.385       .  A
C948        C960   1.448       .  A
C948        C956   1.385       .  A
C949        C963   1.451       .  A
C949        C957   1.388       .  A
C950        C958   1.386       .  A
C950        C961   1.448       .  A
C951        C959   1.385       .  A
C951        C962   1.446       .  A
C952        C953   1.386       .  A
C952        H964   1.082       .  S
C953        H965   1.082       .  S
C954        C955   1.383       .  A
C954        H966   1.082       .  S
C955        H967   1.080       .  S
C956        C957   1.382   1_455  A
C956        H968   1.082       .  S
C957        H969   1.081       .  S
C958        C959   1.381   1_455  A
C958        H970   1.081       .  S
C959        H971   1.081       .  S
C961       N1120   1.490       .  S
C962        N983   1.493       .  S
C963       N1074   1.490       .  S
C974        C976   1.563       .  S
C974        C978   1.575       .  S
C974        C977   1.557       .  S
C974       C1426   1.498       .  S
C975        C979   1.562       .  S
C975        C981   1.568       .  S
C975        C980   1.588       .  S
C975       C1410   1.507       .  S
C976        C984   1.403       .  A
C976        C979   1.378       .  A
C977        C988   1.406       .  A
C977        C980   1.383       .  A
C978        C992   1.421       .  A
C978        C981   1.368       .  A
C979        C982   1.408       .  A
C980        C986   1.421       .  A
C981        C989   1.409       .  A
C982        N983   1.375       .  A
C982        H995   1.082       .  S
N983        C984   1.371       .  A
C984        H985   1.080       .  S
C986        N987   1.375       .  A
C986        H996   1.075       .  S
N987        C988   1.370       .  A
N987       C1051   1.498       .  S
C988        H994   1.082       .  S
C989        N990   1.366       .  A
C989        H991   1.080       .  S
N990        C992   1.373       .  A
C992        H993   1.081       .  S
N997       C1002   1.369       .  A
N997       C1001   1.374       .  A
N997       H1029   1.041       .  S
N998       C1005   1.369       .  A
N999       C1004   1.374       .  A
N999       C1003   1.371       .  A
N999       H1030   1.041       .  S
N1000      C1007   1.369       .  A
C1001      C1009   1.385       .  A
C1001      C1017   1.447       .  A
C1002      C1018   1.451       .  A
C1002      C1010   1.388       .  A
C1003      C1011   1.388       .  A
C1003      C1020   1.449       .  A
C1004      C1019   1.452       .  A
C1004      C1012   1.387       .  A
C1005      C1017   1.442       .  A
C1005      C1013   1.386       .  A
C1006      C1020   1.455       .  A
C1006      C1014   1.388       .  A
C1007      C1015   1.388       .  A
C1007      C1018   1.450       .  A
C1008      C1016   1.385       .  A
C1008      C1019   1.453       .  A
C1009      C1010   1.389       .  A
C1009      H1021   1.082       .  S
C1010      H1022   1.078       .  S
C1011      C1012   1.386       .  A
C1011      H1023   1.082       .  S
C1012      H1024   1.081       .  S
C1013      H1025   1.082       .  S
C1014      H1026   1.082       .  S
C1015      H1027   1.082       .  S
C1016      H1028   1.082       .  S
C1017      N1078   1.494       .  S
C1019      N1150   1.504       .  S
N1031      C1035   1.376       .  A
N1031      H1063   1.040       .  S
N1032      C1039   1.372       .  A
N1032      C1040   1.369       .  A
N1033      C1037   1.372       .  A
N1033      H1064   1.040       .  S
N1034      C1041   1.372       .  A
N1034      C1042   1.375       .  A
C1035      C1043   1.385       .  A
C1035      C1051   1.450       .  A
C1036      C1052   1.445       .  A
C1036      C1044   1.388       .  A
C1037      C1045   1.388       .  A
C1037      C1054   1.452       .  A
C1038      C1053   1.462       .  A
C1038      C1046   1.389       .  A
C1039      C1051   1.445       .  A
C1039      C1047   1.384       .  A
C1040      C1054   1.448       .  A
C1040      C1048   1.388       .  A
C1041      C1049   1.386       .  A
C1041      C1052   1.454       .  A
C1042      C1050   1.382       .  A
C1042      C1053   1.446       .  A
C1043      H1055   1.082       .  S
C1044      H1056   1.082       .  S
C1045      H1057   1.082       .  S
C1046      H1058   1.082       .  S
C1047      C1048   1.382       .  A
C1047      H1059   1.082       .  S
C1048      H1060   1.081       .  S
C1049      C1050   1.381       .  A
C1049      H1061   1.074       .  S
C1050      H1062   1.081       .  S
C1052      N1101   1.494       .  S
C1054      N1127   1.489       .  S
C1065      C1067   1.570       .  S
C1065      C1069   1.560       .  S
C1065      C1068   1.562       .  S
C1065      C1394   1.527       .  S
C1066      C1070   1.583       .  S
C1066      C1072   1.548       .  S
C1066      C1071   1.590       .  S
C1066      C1378   1.536       .  S
C1067      C1075   1.403       .  A
C1067      C1070   1.389       .  A
C1068      C1079   1.397       .  A
C1068      C1071   1.389       .  A
C1069      C1083   1.413       .  A
C1069      C1072   1.372       .  A
C1070      C1073   1.421       .  A
C1071      C1077   1.423       .  A
C1072      C1080   1.394       .  A
C1073      N1074   1.378       .  A
C1073      H1086   1.080       .  S
N1074      C1075   1.359       .  A
C1075      H1076   1.080       .  S
C1077      N1078   1.378       .  A
C1077      H1087   1.082       .  S
N1078      C1079   1.365       .  A
C1079      H1085   1.078       .  S
C1080      N1081   1.361       .  A
C1080      H1082   1.082       .  S
N1081      C1083   1.379       .  A
C1083      H1084   1.082       .  S
C1088      C1090   1.585       .  S
C1088      C1092   1.598       .  S
C1088      C1091   1.570       .  S
C1088      C1349   1.511       .  S
C1089      C1093   1.567       .  S
C1089      C1095   1.525       .  S
C1089      C1094   1.532       .  S
C1089      C1362   1.471       .  S
C1090      C1098   1.411       .  A
C1090      C1093   1.391       .  A
C1091      C1102   1.411       .  A
C1091      C1094   1.352       .  A
C1092      C1106   1.432       .  A
C1092      C1095   1.371       .  A
C1093      C1096   1.405       .  A
C1094      C1100   1.399       .  A
C1095      C1103   1.383       .  A
C1096      N1097   1.365       .  A
C1096      H1109   1.079       .  S
N1097      C1098   1.374       .  A
C1098      H1099   1.081       .  S
C1100      N1101   1.368       .  A
C1100      H1110   1.081       .  S
N1101      C1102   1.377       .  A
C1102      H1108   1.082       .  S
C1103      N1104   1.347       .  A
C1103      H1105   1.082       .  S
N1104      C1106   1.391       .  A
C1106      H1107   1.082       .  S
C1111      C1113   1.587       .  S
C1111      C1115   1.567       .  S
C1111      C1114   1.568       .  S
C1111      C1314   1.522       .  S
C1112      C1116   1.579       .  S
C1112      C1118   1.556       .  S
C1112      C1117   1.553       .  S
C1112      C1330   1.522       .  S
C1113      C1121   1.407       .  A
C1113      C1116   1.409       .  A
C1114      C1125   1.419       .  A
C1114      C1117   1.362       .  A
C1115      C1129   1.414       .  A
C1115      C1118   1.359       .  A
C1116      C1119   1.407       .  A
C1117      C1123   1.399       .  A
C1118      C1126   1.407       .  A
C1119      N1120   1.372       .  A
C1119      H1132   1.077       .  S
N1120      C1121   1.371       .  A
C1121      H1122   1.079       .  S
C1123      N1124   1.359       .  A
C1123      H1133   1.080       .  S
N1124      C1125   1.376       .  A
C1125      H1131   1.082       .  S
C1126      N1127   1.365       .  A
C1126      H1128   1.083       .  S
N1127      C1129   1.373       .  A
C1129      H1130   1.082       .  S
C1134      C1136   1.546       .  S
C1134      C1138   1.581       .  S
C1134      C1137   1.565       .  S
C1134      C1301   1.510       .  S
C1135      C1139   1.568       .  S
C1135      C1141   1.585       .  S
C1135      C1140   1.564       .  S
C1135      C1282   1.517       .  S
C1136      C1144   1.392       .  A
C1136      C1139   1.372       .  A
C1137      C1148   1.415       .  A
C1137      C1140   1.366       .  A
C1138      C1152   1.413       .  A
C1138      C1141   1.392       .  A
C1139      C1142   1.416       .  A
C1140      C1146   1.406       .  A
C1141      C1149   1.414       .  A
C1142      N1143   1.375       .  A
C1142      H1155   1.081       .  S
N1143      C1144   1.360       .  A
C1144      H1145   1.082       .  S
C1146      N1147   1.366       .  A
C1146      H1156   1.081       .  S
N1147      C1148   1.370       .  A
C1148      H1154   1.082       .  S
C1149      N1150   1.377       .  A
C1149      H1151   1.082       .  S
N1150      C1152   1.377       .  A
C1152      H1153   1.081       .  S
O1157     Zr1169   2.410   1_455  S
O1157      C1159   1.280       .  A
O1158      C1159   1.266       .  A
C1159      C1522   1.425       .  S
O1160     Zr1172   2.416       .  S
O1160      C1162   1.284       .  A
O1161      C1162   1.274       .  A
C1162      C1493   1.423       .  S
O1163     Zr1172   2.445   1_445  S
O1163      C1165   1.281       .  A
O1164      C1165   1.264       .  A
C1165      C1285   1.471   1_545  S
O1166     Zr1169   2.420       .  S
O1166      C1168   1.276       .  A
O1167      C1168   1.270       .  A
C1168      C1346   1.475       .  S
Zr1169     O1170   2.433       .  S
Zr1169     O1171   2.435       .  S
Zr1169     O1175   2.365   1_655  S
Zr1169     O1176   2.356       .  S
O1170      H1213   0.990       .  S
O1171      H1212   0.990   1_655  S
O1171      H1216   0.991       .  S
Zr1172     O1173   2.438   1_565  S
Zr1172     O1174   2.434       .  S
Zr1172     O1176   2.337   1_565  S
Zr1172     O1175   2.363   1_665  S
O1173      H1214   0.991       .  S
O1173      H1217   0.990       .  S
O1174      H1207   0.990       .  S
O1176      H1203   0.958       .  S
O1177     Zr1189   2.421   1_655  S
O1177      C1179   1.285       .  A
O1178     Zr1196   2.399       .  S
O1178      C1179   1.278       .  A
C1179      C1413   1.466       .  S
O1180     Zr1192   2.449   1_554  S
O1180      C1182   1.276   1_554  A
O1181     Zr1195   2.419   1_564  S
O1181      C1182   1.279   1_554  A
C1182      C1442   1.463       .  S
O1183     Zr1192   2.476   1_655  S
O1183      C1185   1.293       .  A
O1184     Zr1196   2.379   1_565  S
O1184      C1185   1.279       .  A
C1185      C1397   1.487       .  S
O1186     Zr1189   2.411       .  S
O1186      C1188   1.273       .  A
O1187     Zr1195   2.407       .  S
O1187      C1188   1.281       .  A
C1188      C1333   1.452       .  S
Zr1189     O1190   2.437   1_545  S
Zr1189     O1191   2.444       .  S
Zr1189     O1197   2.331   1_445  S
Zr1189     O1198   2.379   1_545  S
Zr1189     O1201   2.378       .  S
Zr1189     O1199   2.275   1_455  S
O1190      H1210   0.990       .  S
O1190      H1215   0.990       .  S
O1191      H1211   0.990       .  S
Zr1192     O1193   2.423       .  S
Zr1192     O1194   2.438   1_456  S
Zr1192     O1198   2.394       .  S
Zr1192     O1197   2.381   1_455  S
Zr1192     O1200   2.388   1_556  S
Zr1192     O1202   2.280   1_456  S
O1193      H1209   0.989       .  S
O1194      H1208   0.990       .  S
O1194      H1218   0.990   1_655  S
Zr1195     O1198   2.403   1_545  S
Zr1195     O1200   2.395   1_546  S
Zr1195     O1201   2.398       .  S
Zr1196     O1197   2.373   1_545  S
Zr1196     O1199   2.259       .  S
Zr1196     O1202   2.256   1_546  S
O1197      H1205   0.961       .  S
O1200      H1204   0.954       .  S
O1201      H1206   0.957       .  S
O1219     Zr1231   2.424       .  S
O1219      C1221   1.277       .  A
O1220     Zr1257   2.401       .  S
O1220      C1221   1.276       .  A
C1221      C1317   1.469       .  S
O1222     Zr1234   2.427       .  S
O1222      C1224   1.283       .  A
O1223     Zr1258   2.369       .  S
O1223      C1224   1.278       .  A
C1224      C1298   1.431       .  S
O1225     Zr1234   2.432       .  S
O1225      C1227   1.276       .  A
O1226     Zr1257   2.421       .  S
O1226      C1227   1.275       .  A
C1227      C1509   1.487       .  S
O1228     Zr1231   2.407       .  S
O1228      C1230   1.281       .  A
O1229     Zr1258   2.369       .  S
O1229      C1230   1.276       .  A
C1230      C1458   1.409       .  S
Zr1231     O1232   2.438       .  S
Zr1231     O1233   2.433       .  S
Zr1231     O1238   2.367       .  S
Zr1231     O1261   2.349       .  S
Zr1231     O1263   2.345       .  S
Zr1231     O1237   2.303       .  S
O1232      H1275   0.991       .  S
O1233      H1274   0.990       .  S
O1233      H1278   0.990       .  S
Zr1234     O1235   2.437       .  S
Zr1234     O1236   2.417       .  S
Zr1234     O1238   2.318       .  S
Zr1234     O1262   2.350       .  S
Zr1234     O1264   2.373       .  S
Zr1234     O1237   2.290       .  S
O1235      H1276   0.990       .  S
O1235      H1279   0.990       .  S
O1236      H1269   0.990       .  S
O1237     Zr1257   2.279       .  S
O1238     Zr1258   2.367       .  S
O1238      H1265   0.957       .  S
O1239     Zr1251   2.430       .  S
O1239      C1241   1.272       .  A
O1240     Zr1258   2.443       .  S
O1240      C1241   1.281       .  A
C1241      C1381   1.492       .  S
O1242     Zr1254   2.353       .  S
O1242      C1244   1.272       .  A
O1243     Zr1257   2.377       .  S
O1243      C1244   1.275       .  A
C1244      C1365   1.409       .  S
O1245     Zr1254   2.426       .  S
O1245      C1247   1.275       .  A
O1246     Zr1258   2.400       .  S
O1246      C1247   1.276       .  A
C1247      C1477   1.469       .  S
O1248     Zr1251   2.422       .  S
O1248      C1250   1.278       .  A
O1249     Zr1257   2.371       .  S
O1249      C1250   1.255       .  A
C1250      C1429   1.456       .  S
Zr1251     O1252   2.438       .  S
Zr1251     O1253   2.432       .  S
Zr1251     O1259   2.375       .  S
Zr1251     O1263   2.391       .  S
Zr1251     O1261   2.376       .  S
Zr1251     O1260   2.288       .  S
O1252      H1272   0.990       .  S
O1252      H1277   0.990       .  S
O1253      H1273   0.989       .  S
Zr1254     O1255   2.444       .  S
Zr1254     O1256   2.437       .  S
Zr1254     O1259   2.386       .  S
Zr1254     O1264   2.326       .  S
Zr1254     O1262   2.351       .  S
Zr1254     O1260   2.287       .  S
O1255      H1271   0.990       .  S
O1256      H1270   0.990       .  S
O1256      H1280   0.990       .  S
Zr1257     O1262   2.390       .  S
Zr1257     O1263   2.394       .  S
Zr1257     O1260   2.264       .  S
Zr1258     O1259   2.392       .  S
Zr1258     O1261   2.394       .  S
Zr1258     O1264   2.379       .  S
O1259      H1267   0.958       .  S
O1262      H1266   0.956       .  S
O1263      H1268   0.964       .  S
C1281      C1282   1.412       .  A
C1281      C1286   1.397       .  A
C1281      H1288   1.077       .  S
C1282      C1283   1.434       .  A
C1283      C1290   1.510       .  S
C1283      C1284   1.388       .  A
C1284      C1285   1.389       .  A
C1284      H1289   1.080       .  S
C1285      C1286   1.411       .  A
C1286      C1287   1.511       .  S
C1287      H1291   1.111       .  S
C1287      H1292   1.107   1_565  S
C1287      H1293   1.106   1_565  S
C1290      H1294   1.111       .  S
C1290      H1295   1.107       .  S
C1290      H1296   1.102       .  S
C1297      C1298   1.396       .  A
C1297      C1302   1.393       .  A
C1297      H1304   1.086       .  S
C1298      C1299   1.392       .  A
C1299      C1306   1.505       .  S
C1299      C1300   1.384       .  A
C1300      C1301   1.416       .  A
C1300      H1305   1.077       .  S
C1301      C1302   1.424       .  A
C1302      C1303   1.509       .  S
C1303      H1307   1.110       .  S
C1303      H1308   1.111       .  S
C1303      H1309   1.103       .  S
C1306      H1310   1.108       .  S
C1306      H1311   1.110       .  S
C1306      H1312   1.111       .  S
C1313      C1314   1.421       .  A
C1313      C1318   1.391       .  A
C1313      H1320   1.077       .  S
C1314      C1315   1.424       .  A
C1315      C1322   1.508       .  S
C1315      C1316   1.396       .  A
C1316      C1317   1.400       .  A
C1316      H1321   1.074       .  S
C1317      C1318   1.401       .  A
C1318      C1319   1.513       .  S
C1319      H1323   1.111       .  S
C1319      H1324   1.107       .  S
C1319      H1325   1.109       .  S
C1322      H1326   1.108       .  S
C1322      H1327   1.102       .  S
C1322      H1328   1.111       .  S
C1329      C1330   1.431       .  A
C1329      C1334   1.380       .  A
C1329      H1336   1.076       .  S
C1330      C1331   1.419       .  A
C1331      C1338   1.504       .  S
C1331      C1332   1.399       .  A
C1332      C1333   1.403       .  A
C1332      H1337   1.077       .  S
C1333      C1334   1.386       .  A
C1334      C1335   1.509       .  S
C1335      H1339   1.111       .  S
C1335      H1340   1.109       .  S
C1335      H1341   1.108       .  S
C1338      H1342   1.108       .  S
C1338      H1343   1.103       .  S
C1338      H1344   1.111       .  S
C1345      C1346   1.395       .  A
C1345      C1350   1.395       .  A
C1345      H1352   1.083       .  S
C1346      C1347   1.414       .  A
C1347      C1354   1.508       .  S
C1347      C1348   1.395       .  A
C1348      C1349   1.407       .  A
C1348      H1353   1.081       .  S
C1349      C1350   1.435       .  A
C1350      C1351   1.512       .  S
C1351      H1355   1.112       .  S
C1351      H1356   1.107       .  S
C1351      H1357   1.105       .  S
C1354      H1358   1.102       .  S
C1354      H1359   1.110       .  S
C1354      H1360   1.111       .  S
C1361      C1362   1.378       .  A
C1361      C1366   1.364       .  A
C1361      H1368   1.071       .  S
C1362      C1363   1.436       .  A
C1363      C1370   1.516       .  S
C1363      C1364   1.380       .  A
C1364      C1365   1.382       .  A
C1364      H1369   1.086       .  S
C1365      C1366   1.412       .  A
C1366      C1367   1.501       .  S
C1367      H1371   1.111       .  S
C1367      H1372   1.111       .  S
C1367      H1373   1.098       .  S
C1370      H1374   1.111       .  S
C1370      H1375   1.103       .  S
C1370      H1376   1.106       .  S
C1377      C1378   1.411       .  A
C1377      C1382   1.402       .  A
C1377      H1384   1.076       .  S
C1378      C1379   1.434       .  A
C1379      C1386   1.511       .  S
C1379      C1380   1.404       .  A
C1380      C1381   1.400       .  A
C1380      H1385   1.085       .  S
C1381      C1382   1.413       .  A
C1382      C1383   1.501       .  S
C1383      H1387   1.111       .  S
C1383      H1388   1.097       .  S
C1383      H1389   1.110       .  S
C1386      H1390   1.109       .  S
C1386      H1391   1.103       .  S
C1386      H1392   1.111       .  S
C1393      C1394   1.398       .  A
C1393      C1398   1.398       .  A
C1393      H1400   1.082       .  S
C1394      C1395   1.411       .  A
C1395      C1402   1.509       .  S
C1395      C1396   1.399       .  A
C1396      C1397   1.412       .  A
C1396      H1401   1.084       .  S
C1397      C1398   1.422       .  A
C1398      C1399   1.505       .  S
C1399      H1403   1.112       .  S
C1399      H1404   1.109       .  S
C1399      H1405   1.104       .  S
C1402      H1406   1.110       .  S
C1402      H1407   1.108       .  S
C1402      H1408   1.110       .  S
C1409      C1410   1.406       .  A
C1409      C1414   1.393       .  A
C1409      H1416   1.085       .  S
C1410      C1411   1.390       .  A
C1411      C1418   1.501       .  S
C1411      C1412   1.394       .  A
C1412      C1413   1.410       .  A
C1412      H1417   1.078       .  S
C1413      C1414   1.412       .  A
C1414      C1415   1.508       .  S
C1415      H1419   1.111       .  S
C1415      H1420   1.109       .  S
C1415      H1421   1.110       .  S
C1418      H1422   1.110       .  S
C1418      H1423   1.107       .  S
C1418      H1424   1.105       .  S
C1425      C1426   1.397       .  A
C1425      C1430   1.388       .  A
C1425      H1432   1.083       .  S
C1426      C1427   1.406       .  A
C1427      C1434   1.503       .  S
C1427      C1428   1.386       .  A
C1428      C1429   1.402       .  A
C1428      H1433   1.084       .  S
C1429      C1430   1.422       .  A
C1430      C1431   1.512       .  S
C1431      H1435   1.111       .  S
C1431      H1436   1.110       .  S
C1431      H1437   1.109       .  S
C1434      H1438   1.107       .  S
C1434      H1439   1.110       .  S
C1434      H1440   1.107       .  S
C1441      C1442   1.389       .  A
C1441      C1446   1.392       .  A
C1441      H1448   1.077       .  S
C1442      C1443   1.399       .  A
C1443      C1450   1.510       .  S
C1443      C1444   1.396       .  A
C1444      C1445   1.419       .  A
C1444      H1449   1.077       .  S
C1445      C1446   1.430       .  A
C1446      C1447   1.510       .  S
C1447      H1451   1.102       .  S
C1447      H1452   1.106       .  S
C1447      H1453   1.105       .  S
C1450      H1454   1.109   1_556  S
C1450      H1455   1.110       .  S
C1450      H1456   1.108       .  S
C1457      C1458   1.379       .  A
C1457      C1462   1.379       .  A
C1457      H1464   1.086       .  S
C1458      C1459   1.413       .  A
C1459      C1466   1.505       .  S
C1459      C1460   1.367       .  A
C1460      C1461   1.379       .  A
C1460      H1465   1.068       .  S
C1461      C1462   1.434       .  A
C1462      C1463   1.515       .  S
C1463      H1467   1.111       .  S
C1463      H1468   1.108       .  S
C1463      H1469   1.102       .  S
C1466      H1470   1.109       .  S
C1466      H1471   1.102       .  S
C1466      H1472   1.111       .  S
C1473      C1474   1.400       .  A
C1473      C1478   1.389       .  A
C1473      H1480   1.077       .  S
C1474      C1475   1.436       .  A
C1475      C1482   1.515       .  S
C1475      C1476   1.389       .  A
C1476      C1477   1.393       .  A
C1476      H1481   1.085       .  S
C1477      C1478   1.417       .  A
C1478      C1479   1.505       .  S
C1479      H1483   1.111       .  S
C1479      H1484   1.110       .  S
C1479      H1485   1.106       .  S
C1482      H1486   1.108       .  S
C1482      H1487   1.103       .  S
C1482      H1488   1.111       .  S
C1489      C1490   1.388       .  A
C1489      C1494   1.377       .  A
C1489      H1496   1.074       .  S
C1490      C1491   1.439       .  A
C1491      C1498   1.516       .  S
C1491      C1492   1.384       .  A
C1492      C1493   1.380       .  A
C1492      H1497   1.086       .  S
C1493      C1494   1.408       .  A
C1494      C1495   1.496       .  S
C1495      H1499   1.111       .  S
C1495      H1500   1.103       .  S
C1495      H1501   1.103       .  S
C1498      H1502   1.109       .  S
C1498      H1503   1.101       .  S
C1498      H1504   1.111       .  S
C1505      C1506   1.411       .  A
C1505      C1510   1.399       .  A
C1505      H1512   1.080       .  S
C1506      C1507   1.442       .  A
C1507      C1514   1.510       .  S
C1507      C1508   1.405       .  A
C1508      C1509   1.396       .  A
C1508      H1513   1.085       .  S
C1509      C1510   1.414       .  A
C1510      C1511   1.506       .  S
C1511      H1515   1.111       .  S
C1511      H1516   1.105       .  S
C1511      H1517   1.108       .  S
C1514      H1518   1.108       .  S
C1514      H1519   1.111       .  S
C1514      H1520   1.103       .  S
C1521      C1522   1.402       .  A
C1521      C1526   1.371       .  A
C1521      H1528   1.084       .  S
C1522      C1523   1.397       .  A
C1523      C1530   1.504       .  S
C1523      C1524   1.376       .  A
C1524      C1525   1.409       .  A
C1524      H1529   1.079       .  S
C1525      C1526   1.413       .  A
C1526      C1527   1.514       .  S
C1527      H1531   1.106       .  S
C1527      H1532   1.102       .  S
C1527      H1533   1.111       .  S
C1530      H1534   1.111       .  S
C1530      H1535   1.110       .  S
C1530      H1536   1.101       .  S
