geometry optimzed in LAMMPS
_audit_creation_date              2020-12-01 
_audit_creation_method            'lammps2cif' 
_symmetry_space_group_name_H-M    'P1' 
_symmetry_Int_Tables_number       1 
_symmetry_cell_setting            triclinic 
loop_ 
_symmetry_equiv_pos_as_xyz 
  x,y,z 
_cell_length_a                    48.87804532 
_cell_length_b                    55.73959180347114 
_cell_length_c                    52.5330203105727 
_cell_angle_alpha                 90.08047253407328 
_cell_angle_beta                  90.24012156910321 
_cell_angle_gamma                 90.0957008250535 
loop_ 
_atom_site_label 
_atom_site_type_symbol 
_atom_site_fract_x 
_atom_site_fract_y 
_atom_site_fract_z 
_atom_site_charge 
C1          C  0.07836944  0.68350562  0.93209476     0.80900
N2          N  0.06477003  0.66737850  0.94674290    -0.77400
C3          C  0.03885806  0.66010023  0.94040531     0.83400
N4          N  0.02661393  0.66937982  0.91895888    -0.77300
C5          C  0.04061928  0.68560386  0.90429714     0.83500
N6          N  0.06599162  0.69256866  0.91130420    -0.79000
C7          C  0.86648224  0.68332186  0.93669846     0.80900
N8          N  0.88116194  0.66870600  0.95238806    -0.77400
C9          C  0.90723832  0.66204765  0.94608872     0.83400
N10         N  0.91874255  0.67080264  0.92434988    -0.77300
C11         C  0.90386617  0.68527893  0.90865386     0.83500
N12         N  0.87805696  0.69135725  0.91503074    -0.79000
C13         C  0.91463953  0.68878464  0.15314744     0.80900
N14         N  0.92828210  0.67211334  0.13872505    -0.77400
C15         C  0.91860949  0.66663299  0.11481044     0.83400
N16         N  0.89530946  0.67728553  0.10616997    -0.77300
C17         C  0.88201514  0.69368116  0.12043572     0.83500
N18         N  0.89193275  0.69947388  0.14355221    -0.79000
C19         C  0.05213938  0.68735703  0.14533448     0.80900
N20         N  0.03624717  0.67222691  0.13101573    -0.77400
C21         C  0.04662754  0.66229125  0.10925765     0.83400
N22         N  0.07260133  0.66826697  0.10181161    -0.77300
C23         C  0.08821952  0.68353104  0.11603088     0.83500
N24         N  0.07771722  0.69288929  0.13758701    -0.79000
C25         C  0.90644891  0.52391727  0.14912171     0.80900
N26         N  0.88107947  0.51659841  0.14221692    -0.77400
C27         C  0.86886399  0.52468029  0.12088511     0.83400
N28         N  0.88272127  0.54046334  0.10581115    -0.77300
C29         C  0.90819732  0.54878631  0.11281390     0.83500
N30         N  0.92029800  0.53982751  0.13422769    -0.79000
C31         C  0.86449070  0.52824731  0.93642916     0.80900
N32         N  0.87972060  0.54242007  0.95206547    -0.77400
C33         C  0.90529942  0.54964201  0.94516378     0.83400
N34         N  0.91576032  0.54223033  0.92234778    -0.77300
C35         C  0.90026694  0.52818219  0.90652155     0.83500
N36         N  0.87493757  0.52120656  0.91382946    -0.79000
C37         C  0.04653334  0.49823310  0.94378976     0.80900
N38         N  0.03691255  0.51712402  0.95710527    -0.77400
C39         C  0.02379680  0.53566605  0.94536891     0.83400
N40         N  0.01981259  0.53488229  0.91941098    -0.77300
C41         C  0.02962448  0.51557436  0.90586563     0.83500
N42         N  0.04292716  0.49775859  0.91839488    -0.79000
C43         C  0.05437160  0.53482207  0.15504769     0.80900
N44         N  0.03720075  0.54727276  0.13910247    -0.77400
C45         C  0.04462525  0.55091800  0.11410439     0.83400
N46         N  0.06901369  0.54196058  0.10552451    -0.77300
C47         C  0.08602802  0.52994969  0.12155988     0.83500
N48         N  0.07834372  0.52662290  0.14584558    -0.79000
O49         O  0.03077434  0.64894964  0.98285944    -0.74600
O50         O  0.00394256  0.63117515  0.95252235    -0.53500
C51         C  0.02340137  0.64558720  0.95952218     0.79100
O52         O  0.03033327  0.55804674  0.07164170    -0.59200
O53         O  0.00835072  0.57852491  0.10322686    -0.52200
C54         C  0.02632746  0.56325060  0.09534268     0.71200
O55         O  0.01996833  0.55205834  0.98607273    -0.73700
O56         O  0.99867918  0.57263567  0.95404200    -0.54300
C57         C  0.01356125  0.55510799  0.96244552     0.77200
O58         O  0.03457058  0.65080234  0.06778752    -0.58900
O59         O  0.01016099  0.63377205  0.10023222    -0.52000
C60         C  0.02915626  0.64788086  0.09154092     0.73800
Zr61       Zr  0.01761840  0.63802902  0.02630893     2.54700
O62         O  0.06726284  0.63458436  0.02514388    -0.79500
O63         O  0.01759849  0.68173683  0.02552786    -0.92900
Zr64       Zr  0.01301092  0.56809211  0.02878505     2.64700
O65         O  0.06262448  0.56725324  0.02477061    -0.97800
O66         O  0.00981469  0.52467869  0.03284235    -0.79900
O67         O  0.01529907  0.60234996  0.00174146    -0.83200
O68         O  0.01650923  0.60367478  0.05298121    -2.18000
O69         O  0.92745339  0.65504386  0.07292832    -0.66600
O70         O  0.95020086  0.63480248  0.10428595    -0.51200
C71         C  0.93336207  0.65106499  0.09649593     0.72100
O72         O  0.91629237  0.56003562  0.98743797    -0.59500
O73         O  0.94088152  0.57773265  0.95560789    -0.51500
C74         C  0.92200132  0.56345939  0.96376346     0.73900
O75         O  0.91679032  0.56074091  0.07118102    -0.70900
O76         O  0.94441671  0.57723834  0.10185362    -0.49600
C77         C  0.92424175  0.56351846  0.09440779     0.75300
O78         O  0.91926340  0.65283213  0.98815083    -0.66300
O79         O  0.94182146  0.63290611  0.95642312    -0.53500
C80         C  0.92387634  0.64817903  0.96457634     0.73700
Zr81       Zr  0.93759345  0.64195239  0.02959914     2.77500
O82         O  0.88787163  0.64386557  0.03189120    -0.97000
O83         O  0.94338235  0.68531237  0.02824209    -0.77800
Zr84       Zr  0.93256351  0.57236415  0.02961143     2.70100
O85         O  0.88323437  0.57837165  0.03021356    -0.79100
O86         O  0.93199205  0.52866008  0.03008379    -0.98200
Zr87       Zr  0.97356351  0.60441855  0.97735065     2.21500
Zr88       Zr  0.97700362  0.60541896  0.08001898     2.11100
O89         O  0.93553493  0.60727685  0.05538469    -2.46900
O90         O  0.93391619  0.60703803  0.00391412    -0.78900
O91         O  0.97877081  0.64032959  0.05330600    -0.71100
O92         O  0.97205450  0.56967435  0.00429416    -2.32000
O93         O  0.97642625  0.64022601  0.00261608    -2.28200
O94         O  0.97336214  0.56982214  0.05457534    -0.72800
H95         H  0.03308680  0.60335945  0.06304664     0.79200
H96         H  0.97020403  0.55520846  0.99431557     0.80300
H97         H  0.91980400  0.60816521  0.06640990     0.82500
H98         H  0.97664251  0.65425380  0.99184645     0.80100
H99         H  0.02895930  0.51903241  0.03154337     0.43100
H100        H  0.94605996  0.52416042  0.04282287     0.42100
H101        H  0.87952068  0.58924790  0.01572176     0.41800
H102        H  0.88288021  0.63338895  0.04635118     0.39700
H103        H  0.95789584  0.68872399  0.04095286     0.42800
H104        H  0.00806468  0.68611569  0.00953439     0.37600
H105        H  0.07359636  0.64953932  0.01687339     0.43700
H106        H  0.06623293  0.57293517  0.00725595     0.40200
H107        H  0.88391639  0.66033031  0.03792867     0.45100
H108        H  0.03694091  0.68619756  0.02256689     0.43800
H109        H  0.06918491  0.58046584  0.03584967     0.43900
H110        H  0.91437410  0.52426593  0.03807796     0.44300
C111        C  0.55614849  0.01517379  0.12790063     0.80900
N112        N  0.56382597  0.99378463  0.11826185    -0.77400
C113        C  0.55538929  0.98671515  0.09487057     0.83400
N114        N  0.53964363  0.00162655  0.08035955    -0.77300
C115        C  0.53160481  0.02325511  0.08999216     0.83500
N116        N  0.54006486  0.02990240  0.11376324    -0.79000
C117        C  0.56607861  0.01621868  0.93091890     0.80900
N118        N  0.55154927  0.03064383  0.94652056    -0.77400
C119        C  0.53644970  0.02139324  0.96592687     0.83400
N120        N  0.53685241  0.99704362  0.97022271    -0.77300
C121        C  0.55212991  0.98249264  0.95461826     0.83500
N122        N  0.56614903  0.99239544  0.93505658    -0.79000
C123        C  0.56584353  0.21712001  0.96117466     0.80900
N124        N  0.57486937  0.20940927  0.93832288    -0.77400
C125        C  0.56660289  0.18822234  0.92849450     0.83400
N126        N  0.54945055  0.17405505  0.94221081    -0.77300
C127        C  0.54028171  0.18129595  0.96558503     0.83500
N128        N  0.54855534  0.20302693  0.97510021    -0.79000
C129        C  0.55455022  0.22029672  0.09703378     0.80900
N130        N  0.56342744  0.21272854  0.12007943    -0.77400
C131        C  0.55586854  0.19124036  0.12950682     0.83400
N132        N  0.53981755  0.17651852  0.11514057    -0.77300
C133        C  0.53108743  0.18342957  0.09149065     0.83500
N134        N  0.53815074  0.20568328  0.08257956    -0.79000
C135        C  0.37387511  0.21169985  0.96414996     0.80900
N136        N  0.37411440  0.21167490  0.93842576    -0.77400
C137        C  0.39143747  0.19762212  0.92514525     0.83400
N138        N  0.40906986  0.18308213  0.93797450    -0.77300
C139        C  0.40972174  0.18329560  0.96397916     0.83500
N140        N  0.39170514  0.19735716  0.97705351    -0.79000
C141        C  0.39383067  0.01753490  0.91599014     0.80900
N142        N  0.40882592  0.03188356  0.93169223    -0.77400
C143        C  0.41573258  0.02441506  0.95567334     0.83400
N144        N  0.40692487  0.00254324  0.96396542    -0.77300
C145        C  0.39204630  0.98816448  0.94805193     0.83500
N146        N  0.38531405  0.99593601  0.92447196    -0.79000
C147        C  0.39178177  0.01301404  0.12809910     0.80900
N148        N  0.38727123  0.99018957  0.12039958    -0.77400
C149        C  0.39593080  0.98236860  0.09734415     0.83400
N150        N  0.40907018  0.99799623  0.08137082    -0.77300
C151        C  0.41294205  0.02141581  0.08865235     0.83500
N152        N  0.40440886  0.02858875  0.11211394    -0.79000
C153        C  0.38832221  0.22402146  0.08745845     0.80900
N154        N  0.37204517  0.21525014  0.10606349    -0.77400
C155        C  0.36974980  0.19153929  0.11035872     0.83400
N156        N  0.38461548  0.17600285  0.09621139    -0.77300
C157        C  0.40194826  0.18416492  0.07783671     0.83500
N158        N  0.40356008  0.20840245  0.07312891    -0.79000
O159        O  0.52006065  0.06305779  0.08074121    -0.74600
O160        O  0.50190153  0.03377363  0.05518808    -0.53500
C161        C  0.51668941  0.04097293  0.07420351     0.79100
O162        O  0.41343487  0.14389949  0.06903154    -0.59200
O163        O  0.43908608  0.17316944  0.05008563    -0.52200
C164        C  0.41925360  0.16612525  0.06446461     0.71200
O165        O  0.41999687  0.06192165  0.07629237    -0.73700
O166        O  0.44132906  0.03253024  0.05341676    -0.54300
C167        C  0.42550854  0.03964312  0.07149741     0.77200
O168        O  0.52006205  0.14336738  0.08134099    -0.58900
O169        O  0.50178355  0.17261882  0.05609432    -0.52000
C170        C  0.51651129  0.16553473  0.07517718     0.73800
Zr171      Zr  0.50851194  0.10313272  0.06580016     2.54700
O172        O  0.50286288  0.10292077  0.11184683    -0.79500
O173        O  0.55823441  0.10389880  0.06816642    -0.92900
Zr174      Zr  0.42856355  0.10273732  0.05960273     2.64700
O175        O  0.42262354  0.10507006  0.10557549    -0.97800
O176        O  0.37933097  0.09999073  0.05293875    -0.79900
O177        O  0.46859448  0.07910344  0.06268827    -0.83200
O178        O  0.46857518  0.12689756  0.06302412    -2.18000
O179        O  0.52913022  0.14174930  0.97656945    -0.66600
O180        O  0.50640690  0.17160740  0.99752856    -0.51200
C181        C  0.52414270  0.16401311  0.98110202     0.72100
O182        O  0.42587817  0.06385629  0.96734540    -0.59500
O183        O  0.44273263  0.03418859  0.99293687    -0.51500
C184        C  0.42920639  0.04169489  0.97322784     0.73900
O185        O  0.42193045  0.14318128  0.97099915    -0.70900
O186        O  0.44227729  0.17200189  0.99572791    -0.49600
C187        C  0.42598679  0.16512758  0.97770681     0.75300
O188        O  0.52661413  0.06114199  0.97768548    -0.66300
O189        O  0.50291297  0.03161765  0.99801966    -0.53500
C190        C  0.52091816  0.03885997  0.98184127     0.73700
Zr191      Zr  0.51509953  0.10206998  0.99099624     2.77500
O192        O  0.51890227  0.10044556  0.94480842    -0.97000
O193        O  0.56451625  0.10105338  0.99676053    -0.77800
Zr194      Zr  0.43499161  0.10312451  0.98525497     2.70100
O195        O  0.43664536  0.10463300  0.93899472    -0.79100
O196        O  0.38528295  0.10089531  0.98723019    -0.98200
Zr197      Zr  0.47166168  0.05485977  0.02502876     2.21500
Zr198      Zr  0.47291564  0.15070280  0.02512106     2.11100
O199        O  0.47546458  0.12644072  0.98747650    -2.46900
O200        O  0.47475052  0.07893194  0.98756641    -0.78900
O201        O  0.51311113  0.12638047  0.02825609    -0.71100
O202        O  0.43086139  0.07877894  0.02222153    -2.32000
O203        O  0.51237001  0.07886456  0.02859609    -2.28200
O204        O  0.43213803  0.12681290  0.02248482    -0.72800
H205        H  0.46719027  0.13704173  0.07788706     0.79200
H206        H  0.41480414  0.06865340  0.02098011     0.80300
H207        H  0.47654361  0.13634342  0.97243172     0.82500
H208        H  0.52842739  0.06884270  0.02982477     0.80100
H209        H  0.37209782  0.09421586  0.06941428     0.43100
H210        H  0.37933584  0.11744308  0.99123232     0.42100
H211        H  0.45604275  0.10147415  0.93482338     0.41800
H212        H  0.50696504  0.11350478  0.93851740     0.39700
H213        H  0.56798734  0.11120049  0.01190567     0.42800
H214        H  0.56234409  0.10809196  0.08610387     0.37600
H215        H  0.48744160  0.09174895  0.11485186     0.43700
H216        H  0.43602679  0.11727817  0.11133039     0.40200
H217        H  0.53773589  0.10599555  0.94115897     0.45100
H218        H  0.56362219  0.11832406  0.05840910     0.43800
H219        H  0.40455775  0.11274356  0.10798628     0.43900
H220        H  0.37944351  0.09829815  0.96936658     0.44300
C221        C  0.08854151  0.02563949  0.61162241     0.80900
N222        N  0.07214113  0.03901206  0.59642313    -0.77400
C223        C  0.04802293  0.03003189  0.58733658     0.83400
N224        N  0.04064063  0.00690626  0.59335804    -0.77300
C225        C  0.05735212  0.99347052  0.60885891     0.83500
N226        N  0.08084586  0.00322064  0.61787042    -0.79000
C227        C  0.87073895  0.01786470  0.60676936     0.80900
N228        N  0.88529555  0.03294406  0.59166050    -0.77400
C229        C  0.91154356  0.02741308  0.58494258     0.83400
N230        N  0.92338751  0.00709945  0.59426408    -0.77300
C231        C  0.90854952  0.99201120  0.60917892     0.83500
N232        N  0.88259125  0.99763815  0.61542949    -0.79000
C233        C  0.89932073  0.22219938  0.60726205     0.80900
N234        N  0.91469692  0.20851127  0.59115461    -0.77400
C235        C  0.90604583  0.18589495  0.58488321     0.83400
N236        N  0.88175302  0.17761542  0.59430934    -0.77300
C237        C  0.86647626  0.19141276  0.61015976     0.83500
N238        N  0.87568205  0.21337188  0.61676459    -0.79000
C239        C  0.04726836  0.22928318  0.60604220     0.80900
N240        N  0.03157127  0.21425500  0.59120011    -0.77400
C241        C  0.03904306  0.19060500  0.58863502     0.83400
N242        N  0.06179089  0.18251149  0.60102442    -0.77300
C243        C  0.07762707  0.19758921  0.61492332     0.83500
N244        N  0.07016238  0.22069555  0.61742718    -0.79000
C245        C  0.91542362  0.21730183  0.43528780     0.80900
N246        N  0.92782595  0.20296240  0.45278548    -0.77400
C247        C  0.91398050  0.18392032  0.46275016     0.83400
N248        N  0.88809548  0.17880986  0.45428851    -0.77300
C249        C  0.87582530  0.19327066  0.43680328     0.83500
N250        N  0.88969462  0.21223059  0.42751850    -0.79000
C251        C  0.87843026  0.01596239  0.44007869     0.80900
N252        N  0.89312221  0.03130025  0.45491338    -0.77400
C253        C  0.91586756  0.02383701  0.46784061     0.83400
N254        N  0.92469890  0.00061507  0.46458277    -0.77300
C255        C  0.91004511  0.98515654  0.44926262     0.83500
N256        N  0.88714827  0.99313347  0.43727613    -0.79000
C257        C  0.08877225  0.01900410  0.44866513     0.80900
N258        N  0.07776061  0.99721446  0.44386332    -0.77400
C259        C  0.05270407  0.99111683  0.45242898     0.83400
N260        N  0.03794744  0.00727082  0.46612622    -0.77300
C261        C  0.04876399  0.02932292  0.47160486     0.83500
N262        N  0.07415989  0.03526251  0.46249940    -0.79000
C263        C  0.04680201  0.22913989  0.44906287     0.80900
N264        N  0.03252171  0.21483126  0.46578790    -0.77400
C265        C  0.03401708  0.19023583  0.46337926     0.83400
N266        N  0.04885348  0.18067272  0.44402002    -0.77300
C267        C  0.06265605  0.19471676  0.42753214     0.83500
N268        N  0.06177462  0.21872887  0.43037959    -0.79000
O269        O  0.03747915  0.06967591  0.48091829    -0.74600
O270        O  0.01279323  0.03994374  0.50022799    -0.53500
C271        C  0.03202796  0.04742019  0.48532954     0.79100
O272        O  0.02895596  0.15051338  0.57863615    -0.59200
O273        O  0.00488727  0.17926026  0.55718629    -0.52200
C274        C  0.02287943  0.17258298  0.57384831     0.71200
O275        O  0.03488549  0.06931544  0.57662842    -0.73700
O276        O  0.01105493  0.03870293  0.55785066    -0.54300
C277        C  0.02993227  0.04680879  0.57290658     0.77200
O278        O  0.02683572  0.15047565  0.47685182    -0.58900
O279        O  0.00384346  0.17971233  0.49834279    -0.52000
C280        C  0.02058775  0.17269338  0.48091932     0.73800
Zr281      Zr  0.01821682  0.10911215  0.49108712     2.54700
O282        O  0.06782874  0.11322101  0.49136472    -0.79500
O283        O  0.01558488  0.10639449  0.44485209    -0.92900
Zr284      Zr  0.01783886  0.10944426  0.56574256     2.64700
O285        O  0.06751374  0.11325714  0.56552200    -0.97800
O286        O  0.01581711  0.10796831  0.61205593    -0.79900
O287        O  0.01925998  0.08540709  0.52857615    -0.83200
O288        O  0.01760495  0.13325672  0.52825169    -2.18000
O289        O  0.92283083  0.14444714  0.47547765    -0.66600
O290        O  0.94571003  0.17475105  0.49597524    -0.51200
C291        C  0.92835707  0.16672448  0.47937302     0.72100
O292        O  0.92097079  0.06729595  0.57477530    -0.59500
O293        O  0.94828116  0.03845423  0.55719769    -0.51500
C294        C  0.92803653  0.04536632  0.57119082     0.73900
O295        O  0.91949151  0.14654027  0.57570671    -0.70900
O296        O  0.94251957  0.17663105  0.55549738    -0.49600
C297        C  0.92391876  0.16883724  0.57091048     0.75300
O298        O  0.92452831  0.06430754  0.47878752    -0.66300
O299        O  0.95042857  0.03603105  0.49897809    -0.53500
C300        C  0.93147082  0.04231139  0.48299746     0.73700
Zr301      Zr  0.93763905  0.10535789  0.49072206     2.77500
O302        O  0.88793542  0.10465302  0.49406672    -0.97000
O303        O  0.93825745  0.10295955  0.44447253    -0.77800
Zr304      Zr  0.93780887  0.10717474  0.56520778     2.70100
O305        O  0.88831048  0.10728142  0.56999493    -0.79100
O306        O  0.94521271  0.10664643  0.61107531    -0.98200
Zr307      Zr  0.97973746  0.05976967  0.52849936     2.21500
Zr308      Zr  0.97569392  0.15584720  0.52775009     2.11100
O309        O  0.93619062  0.13022265  0.52743867    -2.46900
O310        O  0.93810445  0.08235435  0.52840874    -0.78900
O311        O  0.97668740  0.13089380  0.49049991    -0.71100
O312        O  0.97866397  0.08426832  0.56618079    -2.32000
O313        O  0.97919618  0.08351390  0.49048784    -2.28200
O314        O  0.97687015  0.13235164  0.56591197    -0.72800
H315        H  0.03324987  0.14387572  0.52822964     0.79200
H316        H  0.97887543  0.07434122  0.58123771     0.80300
H317        H  0.91965369  0.13966122  0.52699400     0.82500
H318        H  0.97981946  0.07336430  0.47558148     0.80100
H319        H  0.01093458  0.09117941  0.61620391     0.43100
H320        H  0.95061671  0.12329277  0.61540285     0.42100
H321        H  0.88124336  0.10240500  0.55307061     0.41800
H322        H  0.88309842  0.11933979  0.50365285     0.39700
H323        H  0.91872198  0.10248173  0.43942666     0.42800
H324        H  0.02644989  0.12011098  0.43845300     0.37600
H325        H  0.07317187  0.11111708  0.47333500     0.43700
H326        H  0.07280715  0.11327459  0.58373876     0.40200
H327        H  0.88129833  0.10772886  0.47654412     0.45100
H328        H  0.99640138  0.11055372  0.44069166     0.43800
H329        H  0.07429851  0.09774366  0.55888946     0.43900
H330        H  0.92665577  0.10482784  0.61831811     0.44300
C331        C  0.00751664  0.44249889  0.29545840    -0.10100
C332        C  0.98547325  0.44118096  0.27857386    -0.04000
C333        C  0.97170441  0.41988430  0.27347861    -0.10100
C334        C  0.97720517  0.39945939  0.28814889     0.10800
C335        C  0.99760900  0.40070822  0.30749567    -0.01900
C336        C  0.01321981  0.42216668  0.31102444     0.10600
C337        C  0.03325000  0.42272152  0.33033218    -0.11900
C338        C  0.03726156  0.40292579  0.34648636    -0.11900
C339        C  0.02236576  0.38154286  0.34296680     0.10600
C340        C  0.00283365  0.38022778  0.32278703    -0.01900
C341        C  0.96295988  0.37796579  0.28391348    -0.12100
C342        C  0.96830480  0.35782371  0.29867103    -0.12100
C343        C  0.98791247  0.35859483  0.31825523     0.10800
C344        C  0.99332437  0.33817570  0.33327361    -0.10100
C345        C  0.01314293  0.33971867  0.35229676    -0.04000
C346        C  0.02630682  0.36110769  0.35863526    -0.14000
H347        H  0.04526069  0.43879373  0.33354939     0.08100
H348        H  0.05243465  0.40425406  0.36150502     0.08100
H349        H  0.94750907  0.37662243  0.26913913     0.08300
H350        H  0.95711022  0.34151635  0.29444990     0.08300
H351        H  0.98075397  0.45643100  0.26652939     0.04700
H352        H  0.01659172  0.32432775  0.36451400     0.04700
C353        C  0.29338998  0.08007528  0.26192233    -0.10100
C354        C  0.29069892  0.09721307  0.24269181    -0.04000
C355        C  0.27195601  0.11590774  0.24405979    -0.10100
C356        C  0.25472434  0.11775221  0.26544859     0.10800
C357        C  0.25706157  0.10060054  0.28543485    -0.01900
C358        C  0.27646931  0.08162702  0.28371565     0.10600
C359        C  0.27842282  0.06502856  0.30378148    -0.11900
C360        C  0.26158254  0.06689834  0.32520647    -0.11900
C361        C  0.24206999  0.08530575  0.32717561     0.10600
C362        C  0.23970714  0.10229560  0.30699927    -0.01900
C363        C  0.23489812  0.13586229  0.26710515    -0.12100
C364        C  0.21735190  0.13710850  0.28789743    -0.12100
C365        C  0.21949048  0.12063960  0.30801832     0.10800
C366        C  0.20156601  0.12156935  0.32896124    -0.10100
C367        C  0.20506072  0.10554462  0.34900362    -0.04000
C368        C  0.22470324  0.08742730  0.34866016    -0.10100
H369        H  0.29313135  0.05054113  0.30306316     0.08100
H370        H  0.26390387  0.05380618  0.34026610     0.08100
H371        H  0.23254005  0.14898862  0.25208137     0.08300
H372        H  0.20207632  0.15113982  0.28810522     0.08300
H373        H  0.30355021  0.09589737  0.22593418     0.04700
H374        H  0.19103527  0.10659177  0.36493047     0.04700
C375        C  0.17891605  0.40068175  0.02092863    -0.10100
C376        C  0.18538353  0.42276164  0.03183819    -0.04000
C377        C  0.20909834  0.42656365  0.04612187    -0.10100
C378        C  0.22770437  0.40734507  0.04953801     0.10800
C379        C  0.22173947  0.38462794  0.03826549    -0.01900
C380        C  0.19729437  0.38130697  0.02377068     0.10600
C381        C  0.19183867  0.35877554  0.01284667    -0.11900
C382        C  0.21006401  0.33971447  0.01590511    -0.11900
C383        C  0.23419502  0.34245973  0.03023745     0.10600
C384        C  0.24013676  0.36514540  0.04163550    -0.01900
C385        C  0.25208452  0.41019488  0.06353623    -0.12100
C386        C  0.27042642  0.39112527  0.06648800    -0.12100
C387        C  0.26476192  0.36850197  0.05587809     0.10800
C388        C  0.28287034  0.34892286  0.05892144    -0.10100
C389        C  0.27555787  0.32658680  0.04910731    -0.04000
C390        C  0.25247186  0.32307123  0.03391172    -0.10100
H391        H  0.17334999  0.35573954  0.00187438     0.08100
H392        H  0.20491777  0.32261859  0.00730618     0.08100
H393        H  0.25721720  0.42730909  0.07210498     0.08300
H394        H  0.28900805  0.39410506  0.07734715     0.08300
H395        H  0.17091566  0.43736583  0.02965314     0.04700
H396        H  0.28989866  0.31191745  0.05156173     0.04700
C397        C  0.64637995  0.08489679  0.27117125    -0.10100
C398        C  0.63642258  0.10705695  0.26316452    -0.04000
C399        C  0.64383974  0.12863277  0.27479632    -0.10100
C400        C  0.66313404  0.12823687  0.29501311     0.10800
C401        C  0.67427786  0.10582225  0.30307234    -0.01900
C402        C  0.66608672  0.08407576  0.29092434     0.10600
C403        C  0.67773876  0.06228433  0.29889742    -0.11900
C404        C  0.69771792  0.06176777  0.31797460    -0.11900
C405        C  0.70582822  0.08288459  0.33049200     0.10600
C406        C  0.69361384  0.10511606  0.32335380    -0.01900
C407        C  0.67139883  0.14935522  0.30751991    -0.12100
C408        C  0.69005452  0.14859454  0.32776863    -0.12100
C409        C  0.70127000  0.12671357  0.33602775     0.10800
C410        C  0.71987740  0.12561536  0.35672286    -0.10100
C411        C  0.73140433  0.10362730  0.36341585    -0.04000
C412        C  0.72598535  0.08260075  0.34989294    -0.10100
H413        H  0.67173634  0.04546800  0.29018540     0.08100
H414        H  0.70646262  0.04462798  0.32321898     0.08100
H415        H  0.66320598  0.16659662  0.30190023     0.08300
H416        H  0.69556750  0.16528751  0.33704235     0.08300
H417        H  0.62253141  0.10751968  0.24698943     0.04700
H418        H  0.74684755  0.10317867  0.37833850     0.04700
C419        C  0.00924291  0.77396946  0.29413764    -0.10100
C420        C  0.98708703  0.75848720  0.29201553    -0.04000
C421        C  0.96327479  0.76111429  0.30631592    -0.10100
C422        C  0.96220911  0.77954411  0.32505957     0.10800
C423        C  0.98584456  0.79409423  0.32931501    -0.01900
C424        C  0.00923883  0.79173448  0.31333626     0.10600
C425        C  0.03159789  0.80726780  0.31686652    -0.11900
C426        C  0.03164722  0.82424717  0.33649888    -0.11900
C427        C  0.00937144  0.82610743  0.35318631     0.10600
C428        C  0.98587103  0.81148769  0.34912964    -0.01900
C429        C  0.93854564  0.78400096  0.33953870    -0.12100
C430        C  0.93825177  0.80194859  0.35838329    -0.12100
C431        C  0.96191049  0.81534100  0.36398854     0.10800
C432        C  0.96293679  0.83207147  0.38447516    -0.10100
C433        C  0.98817153  0.84175962  0.39132911    -0.04000
C434        C  0.00975465  0.84203608  0.37411052    -0.10100
H435        H  0.04940114  0.80602941  0.30473406     0.08100
H436        H  0.04955517  0.83547980  0.33904136     0.08100
H437        H  0.92019141  0.77346440  0.33647571     0.08300
H438        H  0.91978024  0.80462940  0.36933704     0.08300
H439        H  0.98765723  0.74514960  0.27692905     0.04700
H440        H  0.98894727  0.85429082  0.40720589     0.04700
C441        C  0.32679748  0.09541245  0.76698368    -0.10100
C442        C  0.33599805  0.11715680  0.77690549    -0.04000
C443        C  0.32476131  0.13923893  0.76976778    -0.10100
C444        C  0.30301763  0.13959776  0.75180762     0.10800
C445        C  0.29360563  0.11757999  0.74108098    -0.01900
C446        C  0.30555338  0.09540563  0.74867585     0.10600
C447        C  0.29604536  0.07393852  0.73774054    -0.11900
C448        C  0.27523400  0.07410398  0.71949675    -0.11900
C449        C  0.26279016  0.09569000  0.71202681     0.10600
C450        C  0.27185318  0.11767475  0.72306488    -0.01900
C451        C  0.29046087  0.16116878  0.74422740    -0.12100
C452        C  0.26830580  0.16114428  0.72733760    -0.12100
C453        C  0.25872890  0.13965914  0.71657704     0.10800
C454        C  0.23628211  0.13928622  0.69953799    -0.10100
C455        C  0.22910766  0.11783239  0.68766547    -0.04000
C456        C  0.24162406  0.09608785  0.69364063    -0.10100
H457        H  0.30496039  0.05686436  0.74298227     0.08100
H458        H  0.26894579  0.05714768  0.71126843     0.08100
H459        H  0.29759374  0.17828622  0.75135398     0.08300
H460        H  0.25897429  0.17812748  0.72238651     0.08300
H461        H  0.35128996  0.11665809  0.79191957     0.04700
H462        H  0.21189828  0.11788123  0.67451174     0.04700
C463        C  0.93848512  0.44911469  0.75084413    -0.10100
C464        C  0.96121796  0.46399701  0.75258679    -0.04000
C465        C  0.98676369  0.45724484  0.74319159    -0.10100
C466        C  0.98827236  0.43669555  0.72705425     0.10800
C467        C  0.96392375  0.42347374  0.72148353    -0.01900
C468        C  0.93899424  0.42939014  0.73397029     0.10600
C469        C  0.91540683  0.41574427  0.72901115    -0.11900
C470        C  0.91587775  0.39694982  0.71135421    -0.11900
C471        C  0.94024358  0.39057651  0.69896376     0.10600
C472        C  0.96475552  0.40357377  0.70448330    -0.01900
C473        C  0.01307307  0.42910202  0.71619424    -0.12100
C474        C  0.01399436  0.40927134  0.69970292    -0.12100
C475        C  0.99012400  0.39641805  0.69339922     0.10800
C476        C  0.99052601  0.37651029  0.67643802    -0.10100
C477        C  0.96611645  0.36460029  0.67114033    -0.04000
C478        C  0.94112375  0.37134026  0.68141363    -0.10100
H479        H  0.89625708  0.42005978  0.73824308     0.08100
H480        H  0.89707184  0.38724474  0.70761554     0.08100
H481        H  0.03186914  0.43875988  0.72009317     0.08300
H482        H  0.03349448  0.40420070  0.69161936     0.08300
H483        H  0.95980422  0.47902412  0.76566602     0.04700
H484        H  0.96671932  0.34863293  0.65927202     0.04700
C485        C  0.24061219  0.76260169  0.04204983    -0.10100
C486        C  0.22769896  0.75609139  0.01931920    -0.04000
C487        C  0.23428368  0.76630511  0.99597062    -0.10100
C488        C  0.25396991  0.78485401  0.99511594     0.10800
C489        C  0.26789189  0.79173107  0.01791928    -0.01900
C490        C  0.26129924  0.78054450  0.04152305     0.10600
C491        C  0.27562744  0.78754614  0.06360719    -0.11900
C492        C  0.29594841  0.80533145  0.06271071    -0.11900
C493        C  0.30247285  0.81691321  0.03974495     0.10600
C494        C  0.28820909  0.81002104  0.01709156    -0.01900
C495        C  0.26008720  0.79666010  0.97223238    -0.12100
C496        C  0.27926066  0.81518009  0.97161937    -0.12100
C497        C  0.29357981  0.82196121  0.99369322     0.10800
C498        C  0.31312264  0.84051734  0.99312894    -0.10100
C499        C  0.32801704  0.84596369  0.01498028    -0.04000
C500        C  0.32287884  0.83514693  0.03845142    -0.10100
H501        H  0.27129565  0.77915445  0.08172585     0.08100
H502        H  0.30659758  0.80995701  0.08015353     0.08100
H503        H  0.24991975  0.79175448  0.95463281     0.08300
H504        H  0.28318709  0.82393357  0.95360276     0.08300
H505        H  0.21117474  0.74306333  0.01986475     0.04700
H506        H  0.34235618  0.86083313  0.01399221     0.04700
C507        C  0.71496411  0.44346164  0.01066650    -0.10100
C508        C  0.72367494  0.45088367  0.03480160    -0.04000
C509        C  0.71356989  0.44100589  0.05719212    -0.10100
C510        C  0.69294808  0.42316537  0.05576035     0.10800
C511        C  0.68402155  0.41485612  0.03139956    -0.01900
C512        C  0.69553706  0.42460451  0.00873290     0.10600
C513        C  0.68716509  0.41531134  0.98501604    -0.11900
C514        C  0.66844827  0.39638596  0.98345155    -0.11900
C515        C  0.65635192  0.38699034  0.00545534     0.10600
C516        C  0.66375370  0.39657015  0.02969305    -0.01900
C517        C  0.68110656  0.41338677  0.07776156    -0.12100
C518        C  0.66050910  0.39596726  0.07603602    -0.12100
C519        C  0.65154582  0.38731837  0.05226419     0.10800
C520        C  0.63071635  0.36964582  0.05018016    -0.10100
C521        C  0.62349444  0.36111770  0.02610795    -0.04000
C522        C  0.63677009  0.36837689  0.00408547    -0.10100
H523        H  0.69509090  0.42251697  0.96743091     0.08100
H524        H  0.66284483  0.38957714  0.96481972     0.08100
H525        H  0.68746104  0.41946060  0.09646561     0.08300
H526        H  0.65159126  0.38929132  0.09348140     0.08300
H527        H  0.73978619  0.46425253  0.03633926     0.04700
H528        H  0.60899007  0.34639062  0.02459709     0.04700
C529        C  0.96102141  0.77593201  0.76395389    -0.10100
C530        C  0.98259533  0.75982921  0.76184630    -0.04000
C531        C  0.00796067  0.76724108  0.75263811    -0.10100
C532        C  0.00947707  0.78850164  0.73799464     0.10800
C533        C  0.98592362  0.80332487  0.73601560    -0.01900
C534        C  0.96200133  0.79766424  0.75022415     0.10600
C535        C  0.93991440  0.81369481  0.75019633    -0.11900
C536        C  0.94071715  0.83454937  0.73554178    -0.11900
C537        C  0.96374633  0.84006659  0.72071522     0.10600
C538        C  0.98681215  0.82450152  0.72111372    -0.01900
C539        C  0.03342061  0.79506416  0.72498335    -0.12100
C540        C  0.03387722  0.81532659  0.70914849    -0.12100
C541        C  0.01079528  0.83021227  0.70685636     0.10800
C542        C  0.01060373  0.85078622  0.69094349    -0.10100
C543        C  0.98766722  0.86555193  0.69099239    -0.04000
C544        C  0.96475204  0.86099299  0.70579685    -0.10100
H545        H  0.92164551  0.80987398  0.76106964     0.08100
H546        H  0.92310703  0.84630928  0.73577714     0.08100
H547        H  0.05155377  0.78397909  0.72626770     0.08300
H548        H  0.05243173  0.81938269  0.69880505     0.08300
H549        H  0.98156514  0.74340831  0.77294823     0.04700
H550        H  0.98775761  0.88158354  0.67925053     0.04700
C551        C  0.65198611  0.08283318  0.78551302    -0.10100
C552        C  0.63536142  0.10264069  0.78998117    -0.04000
C553        C  0.63760400  0.12377190  0.77605887    -0.10100
C554        C  0.65666222  0.12500801  0.75587363     0.10800
C555        C  0.67187990  0.10412030  0.74933214    -0.01900
C556        C  0.66930301  0.08279938  0.76407727     0.10600
C557        C  0.68419010  0.06232384  0.75712628    -0.11900
C558        C  0.70092661  0.06247603  0.73568025    -0.11900
C559        C  0.70456078  0.08351031  0.72135986     0.10600
C560        C  0.69033663  0.10475091  0.72853948    -0.01900
C561        C  0.66094339  0.14628305  0.74212144    -0.12100
C562        C  0.67996787  0.14717602  0.72230587    -0.12100
C563        C  0.69480150  0.12666145  0.71518306     0.10800
C564        C  0.71395035  0.12718239  0.69500736    -0.10100
C565        C  0.72694337  0.10588730  0.68798114    -0.04000
C566        C  0.72210959  0.08410391  0.70007350    -0.10100
H567        H  0.68250119  0.04586628  0.76792024     0.08100
H568        H  0.71134975  0.04604514  0.73064001     0.08100
H569        H  0.64966105  0.16240908  0.74672359     0.08300
H570        H  0.68269343  0.16396670  0.71228706     0.08300
H571        H  0.62161178  0.10218875  0.80616785     0.04700
H572        H  0.74234570  0.10635894  0.67317259     0.04700
C573        C  0.71870554  0.77002711  0.99994363    -0.10100
C574        C  0.73440469  0.76501779  0.02157641    -0.04000
C575        C  0.72942038  0.77556828  0.04509723    -0.10100
C576        C  0.70871524  0.79310096  0.04710383     0.10800
C577        C  0.69263330  0.79894189  0.02523588    -0.01900
C578        C  0.69757726  0.78734866  0.00151167     0.10600
C579        C  0.68118443  0.79325507  0.98036495    -0.11900
C580        C  0.66026154  0.81031354  0.98232358    -0.11900
C581        C  0.65509487  0.82213794  0.00546143     0.10600
C582        C  0.67150794  0.81633313  0.02718829    -0.01900
C583        C  0.70354457  0.80479116  0.07027880    -0.12100
C584        C  0.68333564  0.82230857  0.07202117    -0.12100
C585        C  0.66716543  0.82823038  0.05082279     0.10800
C586        C  0.64666920  0.84582051  0.05247429    -0.10100
C587        C  0.63022201  0.85055252  0.03144812    -0.04000
C588        C  0.63386360  0.83943592  0.00789518    -0.10100
H589        H  0.68437860  0.78458168  0.96216586     0.08100
H590        H  0.64799258  0.81407067  0.96560522     0.08100
H591        H  0.71523692  0.80057872  0.08722876     0.08300
H592        H  0.68017062  0.83101947  0.09021211     0.08300
H593        H  0.75122063  0.75238649  0.02008943     0.04700
H594        H  0.61522867  0.86479612  0.03324432     0.04700
C595        C  0.06210848  0.32882951  0.40869004     0.16700
C596        C  0.07506868  0.30765305  0.41657043    -0.32400
C597        C  0.06035391  0.29183316  0.43224727     0.21000
C598        C  0.03428644  0.29715521  0.44071064     0.03200
C599        C  0.02204421  0.31920491  0.43420201    -0.22100
C600        C  0.03643488  0.33472834  0.41770874     0.12400
S601        S  0.07256591  0.34581202  0.38337107    -0.05800
C602        C  0.04118483  0.35997416  0.38336058    -0.09200
C603        C  0.02538458  0.35377106  0.40455481    -0.25800
S604        S  0.01801914  0.27330544  0.45519788    -0.03000
C605        C  0.04653866  0.25591505  0.44930492    -0.16500
C606        C  0.06759731  0.26865316  0.43762866    -0.14500
H607        H  0.09457179  0.30245933  0.40857158     0.20900
H608        H  0.00114031  0.32299486  0.43961434     0.16900
H609        H  0.00402080  0.35865210  0.40631418     0.19400
H610        H  0.08644665  0.26061327  0.43101265     0.12800
C611        C  0.10087032  0.15874396  0.37669800     0.16700
C612        C  0.11173571  0.14064822  0.36130544    -0.32400
C613        C  0.13649630  0.14540101  0.34892004     0.21000
C614        C  0.14971157  0.16731315  0.35132337     0.03200
C615        C  0.13813860  0.18584692  0.36576924    -0.22100
C616        C  0.11362404  0.18092422  0.37860414     0.12400
S617        S  0.07331719  0.15521331  0.39620854    -0.05800
C618        C  0.07891722  0.18398464  0.40698960    -0.09200
C619        C  0.10078500  0.19566381  0.39566234    -0.25800
S620        S  0.18214628  0.16771821  0.33917977    -0.03000
C621        C  0.17793534  0.13797689  0.33113526    -0.16500
C622        C  0.15220797  0.12882569  0.33666212    -0.14500
H623        H  0.10227226  0.12308116  0.36038106     0.20900
H624        H  0.14872441  0.20276466  0.36833847     0.16900
H625        H  0.10773815  0.21354307  0.40059552     0.19400
H626        H  0.14672028  0.11004686  0.33491817     0.12800
C627        C  0.15273648  0.02655948  0.40710093     0.16700
C628        C  0.17106489  0.02609495  0.38668272    -0.32400
C629        C  0.19225962  0.04301310  0.38654207     0.21000
C630        C  0.19606208  0.05875051  0.40669153     0.03200
C631        C  0.17805822  0.05878929  0.42758995    -0.22100
C632        C  0.15572973  0.04281887  0.42692390     0.12400
S633        S  0.12392443  0.00955561  0.40860607    -0.05800
C634        C  0.11491677  0.02483654  0.43589403    -0.09200
C635        C  0.13386589  0.04205932  0.44356070    -0.25800
S636        S  0.21981258  0.08050240  0.40080187    -0.03000
C637        C  0.22245243  0.06989540  0.36984214    -0.16500
C638        C  0.20786890  0.04887064  0.36574445    -0.14500
H639        H  0.16761585  0.01430372  0.37057741     0.20900
H640        H  0.18006756  0.07200662  0.44260969     0.16900
H641        H  0.13162002  0.05352259  0.46007020     0.19400
H642        H  0.20487239  0.04088223  0.34712574     0.12800
C643        C  0.04636189  0.89389564  0.40337006     0.16700
C644        C  0.05862249  0.90801650  0.42236751    -0.32400
C645        C  0.04714684  0.93062218  0.42735808     0.21000
C646        C  0.02433223  0.93879078  0.41426209     0.03200
C647        C  0.01253978  0.92493715  0.39479685    -0.22100
C648        C  0.02435924  0.90252473  0.38948848     0.12400
S649        S  0.05402300  0.86445514  0.39742382    -0.05800
C650        C  0.02715635  0.86364436  0.37610001    -0.09200
C651        C  0.01428669  0.88572610  0.37293897    -0.25800
S652        S  0.01399058  0.96699517  0.42284583    -0.03000
C653        C  0.04130944  0.96813291  0.44364462    -0.16500
C654        C  0.05696276  0.94738630  0.44415412    -0.14500
H655        H  0.07596247  0.90146798  0.43319072     0.20900
H656        H  0.99475166  0.93122489  0.38442285     0.16900
H657        H  0.99536366  0.88809862  0.36241439     0.19400
H658        H  0.07576659  0.94539054  0.45492436     0.12800
C659        C  0.77354064  0.03692269  0.38068103     0.16700
C660        C  0.78608417  0.02240334  0.39932687    -0.32400
C661        C  0.81420466  0.02601723  0.40425829     0.21000
C662        C  0.82902740  0.04316468  0.39106601     0.03200
C663        C  0.81691231  0.05654600  0.37154788    -0.22100
C664        C  0.78897052  0.05304965  0.36673442     0.12400
S665        S  0.73888029  0.03967202  0.37570649    -0.05800
C666        C  0.74550740  0.06266906  0.35457452    -0.09200
C667        C  0.77322031  0.06700383  0.35113456    -0.25800
S668        S  0.86187119  0.04701861  0.40153834    -0.03000
C669        C  0.85611691  0.02485328  0.42360545    -0.16500
C670        C  0.82996121  0.01496263  0.42265247    -0.14500
H671        H  0.77416530  0.00994233  0.41055105     0.20900
H672        H  0.82844894  0.07013081  0.36148309     0.16900
H673        H  0.78120711  0.08210802  0.34051212     0.19400
H674        H  0.82276981  0.00083124  0.43507473     0.12800
C675        C  0.92719219  0.87951184  0.42235398     0.16700
C676        C  0.92307028  0.89611039  0.44238962    -0.32400
C677        C  0.92338857  0.92085619  0.43646187     0.21000
C678        C  0.92764132  0.92843167  0.41168470     0.03200
C679        C  0.93084883  0.91192149  0.39172770    -0.22100
C680        C  0.93031424  0.88736808  0.39758781     0.12400
S681        S  0.93267625  0.84922832  0.42575169    -0.05800
C682        C  0.93972558  0.84712674  0.39345044    -0.09200
C683        C  0.93607228  0.86895971  0.38098733    -0.25800
S684        S  0.92749832  0.95879988  0.40792795    -0.03000
C685        C  0.92110150  0.96192864  0.44001802    -0.16500
C686        C  0.91938332  0.94008252  0.45289998    -0.14500
H687        H  0.92065672  0.89004674  0.46181893     0.20900
H688        H  0.93427820  0.91801092  0.37243330     0.16900
H689        H  0.94228820  0.87205334  0.36148447     0.19400
H690        H  0.91399188  0.93830670  0.47277429     0.12800
C691        C  0.95805409  0.25414049  0.38927362     0.16700
C692        C  0.97702936  0.26209771  0.37124544    -0.32400
C693        C  0.96958118  0.28168854  0.35594572     0.21000
C694        C  0.94441297  0.29281630  0.35842120     0.03200
C695        C  0.92493713  0.28409474  0.37549708    -0.22100
C696        C  0.93251705  0.26476541  0.39098443     0.12400
S697        S  0.96332031  0.23121548  0.41036831    -0.05800
C698        C  0.93040352  0.23558798  0.42093939    -0.09200
C699        C  0.91664621  0.25424340  0.40909792    -0.25800
S700        S  0.94190985  0.31966083  0.34308490    -0.03000
C701        C  0.97561752  0.31651812  0.33418987    -0.16500
C702        C  0.98682671  0.29437250  0.34061056    -0.14500
H703        H  0.99718320  0.25414072  0.37004402     0.20900
H704        H  0.90535227  0.29289382  0.37773044     0.16900
H705        H  0.89552344  0.25901686  0.41265547     0.19400
H706        H  0.00825990  0.28992671  0.33837351     0.12800
C707        C  0.81410113  0.18092186  0.39375154     0.16700
C708        C  0.79677443  0.17734672  0.37280357    -0.32400
C709        C  0.77082876  0.16765646  0.37736158     0.21000
C710        C  0.76209192  0.16263729  0.40185286     0.03200
C711        C  0.77932088  0.16663620  0.42295936    -0.22100
C712        C  0.80581149  0.17534989  0.41827147     0.12400
S713        S  0.84690366  0.19077069  0.39158624    -0.05800
C714        C  0.85003139  0.18680916  0.42398472    -0.09200
C715        C  0.82657186  0.17846882  0.43584245    -0.25800
S716        S  0.73173359  0.14754115  0.40296779    -0.03000
C717        C  0.73162890  0.14665534  0.37006060    -0.16500
C718        C  0.75321119  0.15900352  0.35912858    -0.14500
H719        H  0.80380792  0.18072579  0.35361357     0.20900
H720        H  0.77297661  0.16173246  0.44198044     0.16900
H721        H  0.82475571  0.17510947  0.45605938     0.19400
H722        H  0.75795310  0.15849510  0.33900706     0.12800
C723        C  0.02864289  0.29619827  0.61606002     0.16700
C724        C  0.02067173  0.32041175  0.61447248    -0.32400
C725        C  0.02448890  0.33505443  0.63617040     0.21000
C726        C  0.03581004  0.32606306  0.65836422     0.03200
C727        C  0.04468123  0.30219156  0.65964476    -0.22100
C728        C  0.04055691  0.28756066  0.63816204     0.12400
S729        S  0.02444945  0.27477017  0.59261630    -0.05800
C730        C  0.03932758  0.25416170  0.61284787    -0.09200
C731        C  0.04669261  0.26370965  0.63638792    -0.25800
S732        S  0.03312245  0.34484960  0.68406323    -0.03000
C733        C  0.01507983  0.36471704  0.66529557    -0.16500
C734        C  0.01412710  0.35772240  0.63969147    -0.14500
H735        H  0.01073389  0.32725458  0.59752327     0.20900
H736        H  0.05301520  0.29492562  0.67713818     0.16900
H737        H  0.05639879  0.25362905  0.65154754     0.19400
H738        H  0.00148637  0.36656726  0.62555977     0.12800
C739        C  0.18660933  0.18128315  0.66768765     0.16700
C740        C  0.17265648  0.19314398  0.64793792    -0.32400
C741        C  0.14437349  0.18895012  0.64545719     0.21000
C742        C  0.13063743  0.17372822  0.66191824     0.03200
C743        C  0.14429933  0.16290960  0.68232376    -0.22100
C744        C  0.17246880  0.16710776  0.68482027     0.12400
S745        S  0.22149294  0.17941346  0.67069877    -0.05800
C746        C  0.21686968  0.15927563  0.69524661    -0.09200
C747        C  0.18956026  0.15547671  0.70130341    -0.25800
S748        S  0.09688269  0.16940286  0.65469473    -0.03000
C749        C  0.10106531  0.18878736  0.62961703    -0.16500
C750        C  0.12727285  0.19803851  0.62707285    -0.14500
H751        H  0.18356331  0.20410091  0.63431872     0.20900
H752        H  0.13366432  0.15084639  0.69506066     0.16900
H753        H  0.18264302  0.14171282  0.71434372     0.19400
H754        H  0.13338155  0.21077434  0.61261328     0.12800
C755        C  0.90989521  0.28868368  0.62194615     0.16700
C756        C  0.91096384  0.31385130  0.62144893    -0.32400
C757        C  0.90922527  0.32613120  0.64482510     0.21000
C758        C  0.90655738  0.31395102  0.66762771     0.03200
C759        C  0.90446075  0.28890134  0.66803843    -0.22100
C760        C  0.90645006  0.27666476  0.64477413     0.12400
S761        S  0.91203190  0.27018746  0.59586305    -0.05800
C762        C  0.90772885  0.24614626  0.61603262    -0.09200
C763        C  0.90517195  0.25238434  0.64147078    -0.25800
S764        S  0.91100295  0.33145332  0.69405973    -0.03000
C765        C  0.91805817  0.35533436  0.67434198    -0.16500
C766        C  0.91412505  0.35008795  0.64859469    -0.14500
H767        H  0.91407871  0.32340435  0.60375927     0.20900
H768        H  0.90272672  0.27926851  0.68584871     0.16900
H769        H  0.90119144  0.23975078  0.65667332     0.19400
H770        H  0.92023669  0.36201718  0.63336359     0.12800
C771        C  0.76291627  0.17354994  0.67112794     0.16700
C772        C  0.78824626  0.18544002  0.66992408    -0.32400
C773        C  0.80394367  0.18242024  0.64776193     0.21000
C774        C  0.79469121  0.16854987  0.62756733     0.03200
C775        C  0.76872017  0.15791288  0.62819590    -0.22100
C776        C  0.75316223  0.16069667  0.65041463     0.12400
S777        S  0.74439753  0.16932069  0.69838554    -0.05800
C778        C  0.72405994  0.14916541  0.68197613    -0.09200
C779        C  0.72992438  0.14812181  0.65607185    -0.25800
S780        S  0.81786144  0.16508716  0.60347540    -0.03000
C781        C  0.83999649  0.18317086  0.62036850    -0.16500
C782        C  0.82979594  0.19112932  0.64356558    -0.14500
H783        H  0.79623968  0.19517369  0.68619325     0.20900
H784        H  0.76164704  0.14667901  0.61266395     0.16900
H785        H  0.72096218  0.13505256  0.64320088     0.19400
H786        H  0.84085416  0.20257003  0.65675577     0.12800
C787        C  0.91991502  0.90369910  0.67285747     0.16700
C788        C  0.90839607  0.91393522  0.65099689    -0.32400
C789        C  0.91684640  0.93714540  0.64444528     0.21000
C790        C  0.93537273  0.94988554  0.65926187     0.03200
C791        C  0.94583790  0.94009323  0.68178514    -0.22100
C792        C  0.93773857  0.91671041  0.68812961     0.12400
S793        S  0.91803063  0.87394940  0.68024100    -0.05800
C794        C  0.94262548  0.87879390  0.70325353    -0.09200
C795        C  0.94940945  0.90283498  0.70659981    -0.25800
S796        S  0.94321440  0.97769264  0.64780122    -0.03000
C797        C  0.92100580  0.97217352  0.62298117    -0.16500
C798        C  0.90841791  0.94992158  0.62369119    -0.14500
H799        H  0.89474173  0.90374633  0.63879857     0.20900
H800        H  0.96065210  0.94981950  0.69321847     0.16900
H801        H  0.96643150  0.90890812  0.71824050     0.19400
H802        H  0.89261278  0.94405444  0.61056142     0.12800
C803        C  0.79941991  0.03679308  0.62951490     0.16700
C804        C  0.77263096  0.04527286  0.63239161    -0.32400
C805        C  0.76268144  0.04804191  0.65728621     0.21000
C806        C  0.77846492  0.04236437  0.67839776     0.03200
C807        C  0.80476561  0.03287491  0.67549655    -0.22100
C808        C  0.81485415  0.03048377  0.65066410     0.12400
S809        S  0.81659118  0.03469150  0.60117276    -0.05800
C810        C  0.84462783  0.02501049  0.61816086    -0.09200
C811        C  0.84061103  0.02338868  0.64419433    -0.25800
S812        S  0.76489419  0.05149071  0.70676533    -0.03000
C813        C  0.73776208  0.06340566  0.69004026    -0.16500
C814        C  0.73895638  0.05933001  0.66392978    -0.14500
H815        H  0.76064118  0.05077803  0.61603886     0.20900
H816        H  0.81745710  0.02890926  0.69190191     0.16900
H817        H  0.85608916  0.01783195  0.65777273     0.19400
H818        H  0.72497082  0.06719697  0.65024478     0.12800
C819        C  0.19072940  0.04950856  0.67215275     0.16700
C820        C  0.16597644  0.03678122  0.67139012    -0.32400
C821        C  0.15041658  0.03804994  0.64890602     0.21000
C822        C  0.15921800  0.05108078  0.62801212     0.03200
C823        C  0.18466291  0.06257826  0.62828521    -0.22100
C824        C  0.20007271  0.06154568  0.65081732     0.12400
S825        S  0.20905805  0.05541563  0.69925184    -0.05800
C826        C  0.22921839  0.07459586  0.68167485    -0.09200
C827        C  0.22284817  0.07492586  0.65589779    -0.25800
S828        S  0.13608154  0.05262096  0.60357843    -0.03000
C829        C  0.11467936  0.03488289  0.62139120    -0.16500
C830        C  0.12500990  0.02836682  0.64502018    -0.14500
H831        H  0.15829658  0.02767122  0.68810140     0.20900
H832        H  0.19139636  0.07313440  0.61218505     0.16900
H833        H  0.23162942  0.08746604  0.64245476     0.19400
H834        H  0.11427686  0.01738413  0.65874987     0.12800
C835        C  0.03920112  0.92701426  0.62291724     0.16700
C836        C  0.02932356  0.90331183  0.62347724    -0.32400
C837        C  0.03784825  0.88841087  0.64368969     0.21000
C838        C  0.05530884  0.89673059  0.66253480     0.03200
C839        C  0.06630987  0.91995406  0.66125469    -0.22100
C840        C  0.05764578  0.93483249  0.64119844     0.12400
S841        S  0.02957322  0.94884411  0.60148063    -0.05800
C842        C  0.05117562  0.96852888  0.61705174    -0.09200
C843        C  0.06467947  0.95836351  0.63780933    -0.25800
S844        S  0.05732659  0.87843724  0.68864941    -0.03000
C845        C  0.03331094  0.85978560  0.67474863    -0.16500
C846        C  0.02686368  0.86647978  0.64978783    -0.14500
H847        H  0.01445260  0.89715814  0.60959021     0.20900
H848        H  0.07958343  0.92671692  0.67619370     0.16900
H849        H  0.07892027  0.96784403  0.65008811     0.19400
H850        H  0.01017988  0.85853590  0.63903550     0.12800
C851        C  0.32756473  0.17857251  0.16997694     0.16700
C852        C  0.31714712  0.17755116  0.19476603    -0.32400
C853        C  0.29737519  0.16001568  0.20001238     0.21000
C854        C  0.28751471  0.14488172  0.18110576     0.03200
C855        C  0.29762863  0.14616214  0.15616818    -0.22100
C856        C  0.31839527  0.16291169  0.15123645     0.12400
S857        S  0.35305567  0.19738009  0.16045529    -0.05800
C858        C  0.35216079  0.18340765  0.13122223    -0.09200
C859        C  0.33269493  0.16543103  0.12891144    -0.25800
S860        S  0.26662443  0.12266008  0.19199078    -0.03000
C861        C  0.27241809  0.13297068  0.22254172    -0.16500
C862        C  0.28845254  0.15348052  0.22375945    -0.14500
H863        H  0.32522915  0.18903481  0.20965665     0.20900
H864        H  0.29086228  0.13362391  0.14168015     0.16900
H865        H  0.32906207  0.15499792  0.11181979     0.19400
H866        H  0.29620508  0.16118475  0.24130921     0.12800
C867        C  0.34194563  0.32296696  0.09155216     0.16700
C868        C  0.35303597  0.30403703  0.10571943    -0.32400
C869        C  0.36927500  0.28719458  0.09285750     0.21000
C870        C  0.37545589  0.28954627  0.06729284     0.03200
C871        C  0.36610291  0.30962568  0.05359227    -0.22100
C872        C  0.34880981  0.32600706  0.06622329     0.12400
S873        S  0.31441548  0.33957525  0.10112090    -0.05800
C874        C  0.31073247  0.34967905  0.07028837    -0.09200
C875        C  0.33227824  0.34263893  0.05455943    -0.25800
S876        S  0.39020571  0.26433649  0.05414796    -0.03000
C877        C  0.38739144  0.25042258  0.08337487    -0.16500
C878        C  0.37673515  0.26528438  0.10219684    -0.14500
H879        H  0.34659820  0.30092360  0.12514319     0.20900
H880        H  0.36956136  0.31096939  0.03329765     0.16900
H881        H  0.33183813  0.34490256  0.03407564     0.19400
H882        H  0.37193130  0.25945389  0.12133416     0.12800
C883        C  0.37411378  0.04033620  0.19319220     0.16700
C884        C  0.37102405  0.05546083  0.21427970    -0.32400
C885        C  0.34894672  0.05110734  0.23062688     0.21000
C886        C  0.33110109  0.03213138  0.22660134     0.03200
C887        C  0.33522130  0.01604787  0.20635559    -0.22100
C888        C  0.35683929  0.02087447  0.18952330     0.12400
S889        S  0.39652408  0.04528853  0.16886221    -0.05800
C890        C  0.38272287  0.02074534  0.15357130    -0.09200
C891        C  0.36204350  0.00927360  0.16698896    -0.25800
S892        S  0.30187786  0.03367932  0.24439596    -0.03000
C893        C  0.31330580  0.06065576  0.25661901    -0.16500
C894        C  0.33949872  0.06676884  0.24863952    -0.14500
H895        H  0.38387827  0.07115891  0.21663831     0.20900
H896        H  0.32080053  0.00169566  0.20257419     0.16900
H897        H  0.35055584  0.99395203  0.16005111     0.19400
H898        H  0.34883686  0.08409982  0.25223375     0.12800
C899        C  0.38748533  0.91584929  0.07717607     0.16700
C900        C  0.38949540  0.89259477  0.06693590    -0.32400
C901        C  0.36736446  0.87673606  0.07065371     0.21000
C902        C  0.34442481  0.88358899  0.08418020     0.03200
C903        C  0.34310219  0.90631846  0.09562679    -0.22100
C904        C  0.36494319  0.92228136  0.09152233     0.12400
S905        S  0.41039114  0.93887690  0.07233863    -0.05800
C906        C  0.38947801  0.95721135  0.09019144    -0.09200
C907        C  0.36620021  0.94574206  0.09928154    -0.25800
S908        S  0.31726277  0.86428744  0.08118240    -0.03000
C909        C  0.33648849  0.84709850  0.06061806    -0.16500
C910        C  0.36346486  0.85520527  0.05843945    -0.14500
H911        H  0.40671825  0.88759866  0.05517500     0.20900
H912        H  0.32494976  0.91196801  0.10573183     0.16900
H913        H  0.35062119  0.95434319  0.11069514     0.19400
H914        H  0.37788041  0.84806683  0.04477726     0.12800
C915        C  0.36787965  0.05437964  0.80950514     0.16700
C916        C  0.38868419  0.04789326  0.82676087    -0.32400
C917        C  0.38075698  0.03931426  0.85079135     0.21000
C918        C  0.35334761  0.03633579  0.85678514     0.03200
C919        C  0.33266799  0.04231291  0.83939206    -0.22100
C920        C  0.34053472  0.05177759  0.81584505     0.12400
S921        S  0.37304641  0.06965193  0.78177633    -0.05800
C922        C  0.33805167  0.07366110  0.77936766    -0.09200
C923        C  0.32338044  0.06232686  0.79841125    -0.25800
S924        S  0.34758494  0.02621384  0.88685260    -0.03000
C925        C  0.38239429  0.02643958  0.89184165    -0.16500
C926        C  0.39766939  0.03380777  0.87103977    -0.14500
H927        H  0.41002992  0.05078293  0.82223897     0.20900
H928        H  0.31129992  0.04083488  0.84453937     0.16900
H929        H  0.30161445  0.06463581  0.80132422     0.19400
H930        H  0.41979116  0.03476750  0.87066571     0.12800
C931        C  0.34530333  0.88804449  0.95393270     0.16700
C932        C  0.36692667  0.90248890  0.94533618    -0.32400
C933        C  0.36650768  0.92691659  0.95195899     0.21000
C934        C  0.34529664  0.93659121  0.96605800     0.03200
C935        C  0.32305029  0.92243135  0.97344902    -0.22100
C936        C  0.32362186  0.89799497  0.96713286     0.12400
S937        S  0.34534537  0.85736609  0.95375668    -0.05800
C938        C  0.31625476  0.85798355  0.97224506    -0.09200
C939        C  0.30623509  0.88093130  0.97644096    -0.25800
S940        S  0.34907022  0.96631356  0.97314682    -0.03000
C941        C  0.37943555  0.96583892  0.95674438    -0.16500
C942        C  0.38599503  0.94377399  0.94621121    -0.14500
H943        H  0.38411716  0.89478349  0.93530284     0.20900
H944        H  0.30665818  0.92988853  0.98477263     0.16900
H945        H  0.29007016  0.88494906  0.98984043     0.19400
H946        H  0.40359742  0.94049864  0.93425364     0.12800
C947        C  0.31521693  0.24041693  0.00243785     0.16700
C948        C  0.29591715  0.24785396  0.02052949    -0.32400
C949        C  0.27774804  0.26634123  0.01358617     0.21000
C950        C  0.27833770  0.27653742  0.98957106     0.03200
C951        C  0.29665701  0.26828971  0.97114212    -0.22100
C952        C  0.31531517  0.25043954  0.97832954     0.12400
S953        S  0.34104567  0.22010885  0.00764860    -0.05800
C954        C  0.35192008  0.22527927  0.97693854    -0.09200
C955        C  0.33614242  0.24183431  0.96372350    -0.25800
S956        S  0.25977145  0.30233794  0.98677360    -0.03000
C957        C  0.25250061  0.30047828  0.01877378    -0.16500
C958        C  0.26155823  0.27917016  0.02991486    -0.14500
H959        H  0.29629049  0.24074509  0.03970106     0.20900
H960        H  0.29778397  0.27673514  0.95262007     0.16900
H961        H  0.33970019  0.24732709  0.94424061     0.19400
H962        H  0.26100875  0.27578879  0.05021490     0.12800
C963        C  0.34068011  0.18486598  0.82146508     0.16700
C964        C  0.33887029  0.19620753  0.84518733    -0.32400
C965        C  0.36210958  0.19578124  0.86095093     0.21000
C966        C  0.38638883  0.18528812  0.85323409     0.03200
C967        C  0.38874833  0.17550104  0.82876505    -0.22100
C968        C  0.36524503  0.17525857  0.81328026     0.12400
S969        S  0.31310411  0.17721621  0.80302675    -0.05800
C970        C  0.33478620  0.16049951  0.78424122    -0.09200
C971        C  0.36218295  0.16235386  0.79132263    -0.25800
S972        S  0.41044189  0.18260213  0.87690956    -0.03000
C973        C  0.38748374  0.19582622  0.89734298    -0.16500
C974        C  0.36290584  0.20238394  0.88597323    -0.14500
H975        H  0.31950342  0.20299314  0.85205934     0.20900
H976        H  0.40732525  0.16651329  0.82292894     0.16900
H977        H  0.37845966  0.15179338  0.78300360     0.19400
H978        H  0.34559270  0.20989795  0.89601007     0.12800
C979        C  0.56696704  0.28663960  0.08112907     0.16700
C980        C  0.56496695  0.31119000  0.07544309    -0.32400
C981        C  0.58836220  0.32555197  0.07924007     0.21000
C982        C  0.61255948  0.31597966  0.08847212     0.03200
C983        C  0.61423079  0.29168706  0.09510884    -0.22100
C984        C  0.59103901  0.27730150  0.09093593     0.12400
S985        S  0.54145103  0.26576339  0.07686042    -0.05800
C986        C  0.56340250  0.24437634  0.08882140    -0.09200
C987        C  0.58906714  0.25320076  0.09542668    -0.25800
S988        S  0.64005675  0.33485604  0.08642358    -0.03000
C989        C  0.61924019  0.35553696  0.07161902    -0.16500
C990        C  0.59176130  0.34866769  0.07093565    -0.14500
H991        H  0.54641918  0.31855208  0.06728245     0.20900
H992        H  0.63324988  0.28402289  0.10189660     0.16900
H993        H  0.60524319  0.24256362  0.10389511     0.19400
H994        H  0.57616697  0.35824867  0.06034408     0.12800
C995        C  0.57237273  0.17141831  0.19803747     0.16700
C996        C  0.57281865  0.16120358  0.22240481    -0.32400
C997        C  0.59721637  0.16288639  0.23655762     0.21000
C998        C  0.62005784  0.17454456  0.22711355     0.03200
C999        C  0.61903539  0.18611127  0.20340370    -0.22100
C1000       C  0.59482902  0.18395926  0.18901467     0.12400
S1001       S  0.54625252  0.16829376  0.17639237    -0.05800
C1002       C  0.56563100  0.18440220  0.15509612    -0.09200
C1003       C  0.59084390  0.19182539  0.16457274    -0.25800
S1004       S  0.64945101  0.16918409  0.24407778    -0.03000
C1005       C  0.63096559  0.15044557  0.26369041    -0.16500
C1006       C  0.60305669  0.15020727  0.25819272    -0.14500
H1007       H  0.55559928  0.15085188  0.22927003     0.20900
H1008       H  0.63700954  0.19473799  0.19561490     0.16900
H1009       H  0.60580295  0.20193088  0.15382947     0.19400
H1010       H  0.58869764  0.13787464  0.26686269     0.12800
C1011       C  0.60212790  0.32048356  0.96807916     0.16700
C1012       C  0.58023630  0.30463413  0.96356852    -0.32400
C1013       C  0.58469394  0.28006281  0.96786923     0.21000
C1014       C  0.61006050  0.27161178  0.97553426     0.03200
C1015       C  0.63211531  0.28737227  0.97935356    -0.22100
C1016       C  0.62746590  0.31198343  0.97567278     0.12400
S1017       S  0.59928512  0.35101241  0.96933437    -0.05800
C1018       C  0.63195720  0.35239150  0.98199441    -0.09200
C1019       C  0.64495894  0.33019852  0.98250210    -0.25800
S1020       S  0.61152120  0.24120520  0.97916757    -0.03000
C1021       C  0.57743543  0.23973977  0.97073400    -0.16500
C1022       C  0.56590214  0.26183044  0.96500328    -0.14500
H1023       H  0.56023788  0.31127538  0.95816418     0.20900
H1024       H  0.65176151  0.28082230  0.98591385     0.16900
H1025       H  0.66424475  0.32705635  0.99217911     0.19400
H1026       H  0.54537035  0.26424108  0.95762846     0.12800
C1027       C  0.60568902  0.17654645  0.86662917     0.16700
C1028       C  0.62545064  0.17527331  0.84744178    -0.32400
C1029       C  0.61784766  0.16478146  0.82421797     0.21000
C1030       C  0.59146003  0.15653895  0.82000897     0.03200
C1031       C  0.57150352  0.15806116  0.83916989    -0.22100
C1032       C  0.57939400  0.16785021  0.86276776     0.12400
S1033       S  0.61144935  0.18796499  0.89623465    -0.05800
C1034       C  0.57821116  0.18068105  0.90389476    -0.09200
C1035       C  0.56351136  0.16989215  0.88430242    -0.25800
S1036       S  0.58757055  0.14119439  0.79209233    -0.03000
C1037       C  0.62237529  0.14426425  0.78693065    -0.16500
C1038       C  0.63539555  0.15841699  0.80504166    -0.14500
H1039       H  0.64623092  0.18126802  0.85087322     0.20900
H1040       H  0.55115155  0.15084021  0.83623828     0.16900
H1041       H  0.54223785  0.16458051  0.88549413     0.19400
H1042       H  0.65740676  0.16040490  0.80641299     0.12800
C1043       C  0.56078221  0.91535641  0.97290601     0.16700
C1044       C  0.56129704  0.89271256  0.98466399    -0.32400
C1045       C  0.58309396  0.87713452  0.97870771     0.21000
C1046       C  0.60329189  0.88364873  0.96166892     0.03200
C1047       C  0.60164715  0.90547485  0.94854723    -0.22100
C1048       C  0.58023417  0.92117771  0.95486533     0.12400
S1049       S  0.53930838  0.93875013  0.98072212    -0.05800
C1050       C  0.55662935  0.95641004  0.95913965    -0.09200
C1051       C  0.57758415  0.94429095  0.94663643    -0.25800
S1052       S  0.63179081  0.86575080  0.96262882    -0.03000
C1053       C  0.61677555  0.84952487  0.98679276    -0.16500
C1054       C  0.58990316  0.85669333  0.99173106    -0.14500
H1055       H  0.54667839  0.88820480  0.99933791     0.20900
H1056       H  0.61775924  0.91096852  0.93571040     0.16900
H1057       H  0.59141426  0.95240809  0.93307052     0.19400
H1058       H  0.57797932  0.85002161  0.00756879     0.12800
C1059       C  0.62856363  0.03748728  0.83410070     0.16700
C1060       C  0.61108785  0.02158004  0.84685364    -0.32400
C1061       C  0.60442415  0.02693518  0.87222832     0.21000
C1062       C  0.61480688  0.04708511  0.88442927     0.03200
C1063       C  0.63345201  0.06215841  0.87216403    -0.22100
C1064       C  0.64003042  0.05685512  0.84682079     0.12400
S1065       S  0.63390856  0.03770301  0.80187677    -0.05800
C1066       C  0.65156402  0.06426441  0.80565835    -0.09200
C1067       C  0.65434484  0.07146759  0.83088006    -0.25800
S1068       S  0.60195094  0.05194733  0.91419588    -0.03000
C1069       C  0.58303085  0.02613192  0.91047878    -0.16500
C1070       C  0.58653149  0.01456800  0.88733311    -0.14500
H1071       H  0.60174126  0.00657036  0.83699452     0.20900
H1072       H  0.64130757  0.07810253  0.88148935     0.16900
H1073       H  0.66260584  0.08870074  0.83667103     0.19400
H1074       H  0.57613403  0.99820569  0.88173234     0.12800
C1075       C  0.57568099  0.03752752  0.19452414     0.16700
C1076       C  0.57657319  0.04802336  0.21871282    -0.32400
C1077       C  0.60200034  0.04921951  0.23110524     0.21000
C1078       C  0.62556941  0.04021559  0.22010604     0.03200
C1079       C  0.62445954  0.02865942  0.19636254    -0.22100
C1080       C  0.59901582  0.02771331  0.18381484     0.12400
S1081       S  0.54743054  0.03691001  0.17522477    -0.05800
C1082       C  0.56707722  0.02280553  0.15269257    -0.09200
C1083       C  0.59405023  0.01885232  0.15989586    -0.25800
S1084       S  0.65505040  0.04796259  0.23587385    -0.03000
C1085       C  0.63538125  0.06377952  0.25726299    -0.16500
C1086       C  0.60741512  0.06188666  0.25281445    -0.14500
H1087       H  0.55852180  0.05615107  0.22690571     0.20900
H1088       H  0.64285376  0.02200176  0.18738386     0.16900
H1089       H  0.60936184  0.01054215  0.14793919     0.19400
H1090       H  0.59210631  0.07214181  0.26295901     0.12800
C1091       C  0.60996052  0.89044214  0.09030404     0.16700
C1092       C  0.58643221  0.90304726  0.09773022    -0.32400
C1093       C  0.58410928  0.92708934  0.08997005     0.21000
C1094       C  0.60434105  0.93804000  0.07567666     0.03200
C1095       C  0.62831505  0.92580168  0.06935946    -0.22100
C1096       C  0.63066695  0.90185496  0.07707796     0.12400
S1097       S  0.61387909  0.86003631  0.09218203    -0.05800
C1098       C  0.64299321  0.86267502  0.07385564    -0.09200
C1099       C  0.65048058  0.88629165  0.06919719    -0.25800
S1100       S  0.59779253  0.96713945  0.06786223    -0.03000
C1101       C  0.56776978  0.96494478  0.08459319    -0.16500
C1102       C  0.56313246  0.94258862  0.09539797    -0.14500
H1103       H  0.57011340  0.89422526  0.10800928     0.20900
H1104       H  0.64406214  0.93433138  0.05808084     0.16900
H1105       H  0.66629857  0.89135156  0.05582669     0.19400
H1106       H  0.54625675  0.93843790  0.10795143     0.12800
C1107       C  0.05094865  0.48201140  0.25624238     0.16700
C1108       C  0.06506346  0.48712002  0.23375171    -0.32400
C1109       C  0.05443406  0.50498613  0.21770428     0.21000
C1110       C  0.03111902  0.51776926  0.22373940     0.03200
C1111       C  0.01773027  0.51347254  0.24703066    -0.22100
C1112       C  0.02819096  0.49522152  0.26304404     0.12400
S1113       S  0.05625986  0.45694645  0.27439555    -0.05800
C1114       C  0.02640464  0.46309829  0.29050462    -0.09200
C1115       C  0.01537343  0.48548640  0.28390934    -0.25800
S1116       S  0.02025089  0.53681384  0.19975983    -0.03000
C1117       C  0.04770382  0.52744262  0.18165622    -0.16500
C1118       C  0.06402125  0.51059158  0.19409491    -0.14500
H1119       H  0.08244097  0.47638486  0.22802933     0.20900
H1120       H  0.99899176  0.52279552  0.25169305     0.16900
H1121       H  0.99548607  0.49155191  0.29026233     0.19400
H1122       H  0.08180931  0.50201946  0.18589706     0.12800
C1123       C  0.15073887  0.49266245  0.10999120     0.16700
C1124       C  0.17049691  0.47454281  0.11100915    -0.32400
C1125       C  0.18673360  0.47096561  0.08947660     0.21000
C1126       C  0.18458965  0.48581509  0.06843246     0.03200
C1127       C  0.16516228  0.50443441  0.06764633    -0.22100
C1128       C  0.14765046  0.50701813  0.08863545     0.12400
S1129       S  0.12691660  0.49722491  0.13287072    -0.05800
C1130       C  0.11168693  0.51826363  0.11335963    -0.09200
C1131       C  0.12504830  0.52178825  0.09036540    -0.25800
S1132       S  0.20259885  0.47593556  0.04275461    -0.03000
C1133       C  0.21028726  0.45000660  0.05952446    -0.16500
C1134       C  0.20211875  0.45087994  0.08473846    -0.14500
H1135       H  0.17159567  0.46246185  0.12711229     0.20900
H1136       H  0.16232448  0.51508394  0.05061871     0.16900
H1137       H  0.11829628  0.53396620  0.07559137     0.19400
H1138       H  0.20280347  0.43559652  0.09744635     0.12800
C1139       C  0.08062871  0.44957679  0.98491134     0.16700
C1140       C  0.09106781  0.43554029  0.00482051    -0.32400
C1141       C  0.11304077  0.42018248  0.99935766     0.21000
C1142       C  0.12373045  0.41841542  0.97504461     0.03200
C1143       C  0.11234995  0.43153280  0.95485643    -0.22100
C1144       C  0.09089404  0.44737986  0.96045916     0.12400
S1145       S  0.05701983  0.47196390  0.98842764    -0.05800
C1146       C  0.06093240  0.47835232  0.95657056    -0.09200
C1147       C  0.07933564  0.46358126  0.94403778    -0.25800
S1148       S  0.15411190  0.40331050  0.97352483    -0.03000
C1149       C  0.15304872  0.40009216  0.00610539    -0.16500
C1150       C  0.12914406  0.40885433  0.01700853    -0.14500
H1151       H  0.08378247  0.43783420  0.02411200     0.20900
H1152       H  0.12122948  0.43084106  0.93601895     0.16900
H1153       H  0.08486252  0.46531432  0.92417828     0.19400
H1154       H  0.12610976  0.41054727  0.03735494     0.12800
C1155       C  0.02958461  0.47415376  0.79875356     0.16700
C1156       C  0.03728279  0.47201665  0.82429739    -0.32400
C1157       C  0.03145487  0.49120186  0.84068199     0.21000
C1158       C  0.01912072  0.51205276  0.83224771     0.03200
C1159       C  0.01243433  0.51462814  0.80624206    -0.22100
C1160       C  0.01789325  0.49509568  0.78977507     0.12400
S1161       S  0.02853807  0.45066236  0.77781378    -0.05800
C1162       C  0.01037161  0.46846873  0.75698490    -0.09200
C1163       C  0.00872813  0.49240883  0.76514310    -0.25800
S1164       S  0.01221590  0.53229730  0.85637484    -0.03000
C1165       C  0.02646255  0.51229513  0.87779761    -0.16500
C1166       C  0.03565952  0.49128671  0.86632804    -0.14500
H1167       H  0.04576425  0.45541177  0.83151116     0.20900
H1168       H  0.00204088  0.53052257  0.79942237     0.16900
H1169       H  0.99630935  0.50582730  0.75569830     0.19400
H1170       H  0.04487810  0.47634945  0.87634138     0.12800
C1171       C  0.79442043  0.51010377  0.96316226     0.16700
C1172       C  0.76977210  0.50824007  0.97648771    -0.32400
C1173       C  0.75574389  0.48627609  0.97538219     0.21000
C1174       C  0.76572307  0.46694143  0.96171212     0.03200
C1175       C  0.78962810  0.46922610  0.94721422    -0.22100
C1176       C  0.80372884  0.49120312  0.94838148     0.12400
S1177       S  0.81624622  0.53410470  0.96471218    -0.05800
C1178       C  0.83776750  0.51880917  0.94457025    -0.09200
C1179       C  0.82835882  0.49630263  0.93727651    -0.25800
S1180       S  0.74907293  0.44046606  0.96762978    -0.03000
C1181       C  0.72847224  0.45563916  0.98884381    -0.16500
C1182       C  0.73371091  0.48016371  0.98989091    -0.14500
H1183       H  0.76263141  0.52280870  0.98838262     0.20900
H1184       H  0.79780572  0.45410459  0.93677592     0.16900
H1185       H  0.83953325  0.48392169  0.92530242     0.19400
H1186       H  0.72424851  0.49230748  0.00334966     0.12800
C1187       C  0.92336264  0.48772332  0.85239425     0.16700
C1188       C  0.93182493  0.46765193  0.83833273    -0.32400
C1189       C  0.92097336  0.46460171  0.81369990     0.21000
C1190       C  0.90313859  0.48112458  0.80319289     0.03200
C1191       C  0.89406551  0.50087350  0.81750519    -0.22100
C1192       C  0.90450990  0.50368012  0.84233974     0.12400
S1193       S  0.93313184  0.49402316  0.88303909    -0.05800
C1194       C  0.91094172  0.51800680  0.88267161    -0.09200
C1195       C  0.89720226  0.52097173  0.85968052    -0.25800
S1196       S  0.89684285  0.47670521  0.77141089    -0.03000
C1197       C  0.91890150  0.45251673  0.77201920    -0.16500
C1198       C  0.92875561  0.44751089  0.79639667    -0.14500
H1199       H  0.94648520  0.45508172  0.84614441     0.20900
H1200       H  0.87997135  0.51379106  0.80944635     0.16900
H1201       H  0.88127924  0.53412148  0.85644572     0.19400
H1202       H  0.94500578  0.43477668  0.80016710     0.12800
C1203       C  0.94455391  0.47809912  0.18872423     0.16700
C1204       C  0.96161509  0.45931836  0.19644939    -0.32400
C1205       C  0.95181417  0.44380197  0.21535696     0.21000
C1206       C  0.92637461  0.44698562  0.22636858     0.03200
C1207       C  0.90883488  0.46509853  0.21785425    -0.22100
C1208       C  0.91864714  0.48059380  0.19897980     0.12400
S1209       S  0.95240134  0.49876953  0.16584311    -0.05800
C1210       C  0.91993077  0.51019762  0.16939009    -0.09200
C1211       C  0.90456405  0.49905313  0.18812588    -0.25800
S1212       S  0.92130723  0.43057186  0.25333678    -0.03000
C1213       C  0.95435324  0.42033472  0.25049901    -0.16500
C1214       C  0.96705343  0.42713831  0.22800322    -0.14500
H1215       H  0.98199991  0.45738164  0.18871513     0.20900
H1216       H  0.88897201  0.46778255  0.22645167     0.16900
H1217       H  0.88334717  0.50308238  0.19219187     0.19400
H1218       H  0.98865063  0.42446119  0.22435738     0.12800
C1219       C  0.81349014  0.47851650  0.10354318     0.16700
C1220       C  0.79932811  0.45739256  0.09731207    -0.32400
C1221       C  0.77073394  0.45847245  0.09536313     0.21000
C1222       C  0.75669864  0.47955737  0.10007207     0.03200
C1223       C  0.77086071  0.50059590  0.10738568    -0.22100
C1224       C  0.79970161  0.49970235  0.10854070     0.12400
S1225       S  0.84824222  0.48091646  0.10485520    -0.05800
C1226       C  0.84470754  0.51097311  0.11181201    -0.09200
C1227       C  0.81758921  0.51847088  0.11358301    -0.25800
S1228       S  0.72281580  0.47819296  0.09158061    -0.03000
C1229       C  0.72782823  0.44920727  0.08068107    -0.16500
C1230       C  0.75421368  0.44092252  0.08515235    -0.14500
H1231       H  0.81029921  0.44109059  0.09274256     0.20900
H1232       H  0.76003093  0.51728049  0.11039665     0.16900
H1233       H  0.81133649  0.53642953  0.11881179     0.19400
H1234       H  0.76207941  0.42433208  0.07731152     0.12800
C1235       C  0.03048501  0.73331403  0.19492008     0.16700
C1236       C  0.02155970  0.75410613  0.20746768    -0.32400
C1237       C  0.03107588  0.75820339  0.23239927     0.21000
C1238       C  0.04874773  0.74237028  0.24430113     0.03200
C1239       C  0.05861733  0.72210833  0.23135586    -0.22100
C1240       C  0.04885058  0.71787601  0.20653867     0.12400
S1241       S  0.02082321  0.72474590  0.16486434    -0.05800
C1242       C  0.04191848  0.70016283  0.16784918    -0.09200
C1243       C  0.05566612  0.69900459  0.19100784    -0.25800
S1244       S  0.05293565  0.74764252  0.27618303    -0.03000
C1245       C  0.02989221  0.77099658  0.27380167    -0.16500
C1246       C  0.02139032  0.77528439  0.24886819    -0.14500
H1247       H  0.00692801  0.76605543  0.19858202     0.20900
H1248       H  0.07219793  0.70952014  0.24067713     0.16900
H1249       H  0.07096434  0.68566749  0.19569134     0.19400
H1250       H  0.00479489  0.78731856  0.24398398     0.12800
C1251       C  0.19058062  0.74127201  0.09164051     0.16700
C1252       C  0.16577922  0.74013129  0.10498706    -0.32400
C1253       C  0.15087477  0.71853275  0.10397945     0.21000
C1254       C  0.16031206  0.69879057  0.09061016     0.03200
C1255       C  0.18575235  0.69958136  0.07831851    -0.22100
C1256       C  0.20053386  0.72127071  0.07909483     0.12400
S1257       S  0.20839755  0.76714087  0.08548683    -0.05800
C1258       C  0.22918832  0.75104329  0.06525685    -0.09200
C1259       C  0.22331590  0.72653537  0.06501861    -0.25800
S1260       S  0.13766850  0.67519917  0.08942360    -0.03000
C1261       C  0.11547029  0.69196753  0.10758515    -0.16500
C1262       C  0.12543106  0.71457405  0.11404329    -0.14500
H1263       H  0.15758863  0.75584443  0.11438341     0.20900
H1264       H  0.19297137  0.68441078  0.06735465     0.16900
H1265       H  0.23245420  0.71394819  0.05182699     0.19400
H1266       H  0.11421074  0.72777182  0.12495553     0.12800
C1267       C  0.93322605  0.69946429  0.22403886     0.16700
C1268       C  0.94144961  0.69865404  0.24976290    -0.32400
C1269       C  0.93398687  0.71803967  0.26566539     0.21000
C1270       C  0.91877694  0.73708488  0.25645712     0.03200
C1271       C  0.90970413  0.73740631  0.23120424    -0.22100
C1272       C  0.91768340  0.71849390  0.21530251     0.12400
S1273       S  0.94107693  0.67873061  0.20074328    -0.05800
C1274       C  0.92275994  0.69596459  0.17933291    -0.09200
C1275       C  0.91195665  0.71669944  0.18998590    -0.25800
S1276       S  0.91744978  0.76132363  0.27633350    -0.03000
C1277       C  0.93971986  0.74679057  0.29655268    -0.16500
C1278       C  0.94427074  0.72286082  0.28952772    -0.14500
H1279       H  0.95432595  0.68428090  0.25672447     0.20900
H1280       H  0.89844341  0.75259711  0.22376993     0.16900
H1281       H  0.89969789  0.72972509  0.17977114     0.19400
H1282       H  0.95963218  0.71165686  0.29847696     0.12800
C1283       C  0.78828491  0.75856400  0.08928087     0.16700
C1284       C  0.81454087  0.75717647  0.10013846    -0.32400
C1285       C  0.82582499  0.73424099  0.10373126     0.21000
C1286       C  0.81150518  0.71363458  0.09710177     0.03200
C1287       C  0.78490210  0.71501290  0.08730521    -0.22100
C1288       C  0.77377825  0.73788266  0.08343172     0.12400
S1289       S  0.77298415  0.78440831  0.07886261    -0.05800
C1290       C  0.74687987  0.76709898  0.06641428    -0.09200
C1291       C  0.74982393  0.74270616  0.07096985    -0.25800
S1292       S  0.82954267  0.68762832  0.10060795    -0.03000
C1293       C  0.85651161  0.70461820  0.11149970    -0.16500
C1294       C  0.85161991  0.72909826  0.11250537    -0.14500
H1295       H  0.82620968  0.77324016  0.10434728     0.20900
H1296       H  0.77387775  0.69897461  0.08168679     0.16900
H1297       H  0.73663192  0.72900488  0.06289327     0.19400
H1298       H  0.86636777  0.74238851  0.11879714     0.12800
C1299       C  0.93612071  0.72787821  0.86082919     0.16700
C1300       C  0.95045823  0.74660724  0.84914022    -0.32400
C1301       C  0.94112677  0.75450616  0.82527624     0.21000
C1302       C  0.91877690  0.74408073  0.81330369     0.03200
C1303       C  0.90383740  0.72587173  0.82539580    -0.22100
C1304       C  0.91308984  0.71805493  0.84936037     0.12400
S1305       S  0.94420338  0.71568807  0.88977249    -0.05800
C1306       C  0.91592624  0.69748556  0.88666176    -0.09200
C1307       C  0.90129204  0.70075890  0.86422703    -0.25800
S1308       S  0.91417542  0.75310263  0.78239548    -0.03000
C1309       C  0.94262959  0.77116680  0.78567044    -0.16500
C1310       C  0.95410442  0.77066398  0.80994635    -0.14500
H1311       H  0.96853061  0.75429091  0.85795676     0.20900
H1312       H  0.88636208  0.71758109  0.81617068     0.16900
H1313       H  0.88228676  0.69168884  0.85961191     0.19400
H1314       H  0.97351199  0.77894608  0.81482840     0.12800
C1315       C  0.79378126  0.70120632  0.95781670     0.16700
C1316       C  0.76791684  0.70336494  0.96902070    -0.32400
C1317       C  0.75354715  0.72492819  0.96531410     0.21000
C1318       C  0.76424468  0.74345122  0.95088125     0.03200
C1319       C  0.78932164  0.74069959  0.93835023    -0.22100
C1320       C  0.80388799  0.71932876  0.94246499     0.12400
S1321       S  0.81621122  0.67799008  0.96284771    -0.05800
C1322       C  0.83915479  0.69262584  0.94347697    -0.09200
C1323       C  0.82966888  0.71435341  0.93397059    -0.25800
S1324       S  0.74760846  0.77023803  0.95459964    -0.03000
C1325       C  0.72675258  0.75662737  0.97671432    -0.16500
C1326       C  0.73104789  0.73200603  0.97875957    -0.14500
H1327       H  0.76021037  0.68957727  0.98161332     0.20900
H1328       H  0.79815949  0.75532144  0.92758343     0.16900
H1329       H  0.84139302  0.72626927  0.92191531     0.19400
H1330       H  0.72183506  0.72100247  0.99341002     0.12800
C1331       C  0.15157987  0.70248974  0.95016979     0.16700
C1332       C  0.17897940  0.70416544  0.95796684    -0.32400
C1333       C  0.19082277  0.72713800  0.95921996     0.21000
C1334       C  0.17623262  0.74754447  0.95274437     0.03200
C1335       C  0.14930990  0.74574887  0.94367525    -0.22100
C1336       C  0.13735653  0.72284031  0.94281698     0.12400
S1337       S  0.13236966  0.67668361  0.95002809    -0.05800
C1338       C  0.10512544  0.69353952  0.93946304    -0.09200
C1339       C  0.11088462  0.71773152  0.93632504    -0.25800
S1340       S  0.19200800  0.77387117  0.96105940    -0.03000
C1341       C  0.21835001  0.75722418  0.97387002    -0.16500
C1342       C  0.21540826  0.73261974  0.97030289    -0.14500
H1343       H  0.19006301  0.68843667  0.96427129     0.20900
H1344       H  0.13758302  0.76164101  0.93907133     0.16900
H1345       H  0.09622109  0.73099414  0.92992279     0.19400
H1346       H  0.22859981  0.71934413  0.97904091     0.12800
C1347       C  0.03815231  0.72575008  0.79844310     0.16700
C1348       C  0.03761283  0.70477572  0.81331122    -0.32400
C1349       C  0.03342163  0.70725712  0.83967765     0.21000
C1350       C  0.03036580  0.72965259  0.85071093     0.03200
C1351       C  0.03199697  0.75062366  0.83601720    -0.22100
C1352       C  0.03600784  0.74812087  0.80967617     0.12400
S1353       S  0.03656894  0.72641032  0.76589508    -0.05800
C1354       C  0.03104175  0.75704704  0.76739749    -0.09200
C1355       C  0.03394005  0.76614210  0.79199982    -0.25800
S1356       S  0.02618249  0.72893492  0.88294404    -0.03000
C1357       C  0.02909155  0.69803607  0.88195216    -0.16500
C1358       C  0.03273287  0.68909397  0.85747365    -0.14500
H1359       H  0.03915119  0.68723311  0.80457147     0.20900
H1360       H  0.02934532  0.76812453  0.84463716     0.16900
H1361       H  0.02841878  0.78433218  0.79716933     0.19400
H1362       H  0.03723485  0.67051132  0.85319934     0.12800
loop_ 
_geom_bond_atom_site_label_1 
_geom_bond_atom_site_label_2 
_geom_bond_distance 
_geom_bond_site_symmetry_2 
_ccdc_geom_bond_type 
C1            N2   1.359       .  A
C1            N6   1.346       .  A
C1         C1338   1.472       .  S
N2            C3   1.369       .  A
C3            N4   1.376       .  A
C3           C51   1.497       .  S
N4            C5   1.373       .  A
C5            N6   1.348       .  A
C5         C1357   1.474       .  S
C7            N8   1.363       .  A
C7           N12   1.350       .  A
C7         C1322   1.478       .  S
N8            C9   1.370       .  A
C9           N10   1.365       .  A
C9           C80   1.483       .  S
N10          C11   1.363       .  A
C11          N12   1.350       .  A
C11        C1306   1.467       .  S
C13          N14   1.374       .  A
C13          N18   1.356       .  A
C13        C1274   1.484       .  S
N14          C15   1.374       .  A
C15          N16   1.362       .  A
C15          C71   1.485       .  S
N16          C17   1.350       .  A
C17          N18   1.344       .  A
C17        C1293   1.464       .  S
C19          N20   1.368       .  A
C19          N24   1.352       .  A
C19        C1242   1.470       .  S
N20          C21   1.369       .  A
C21          N22   1.371       .  A
C21          C60   1.493       .  S
N22          C23   1.362       .  A
C23          N24   1.350       .  A
C23        C1261   1.482       .  S
C25          N26   1.353       .  A
C25          N30   1.364       .  A
C25        C1210   1.467       .  S
N26          C27   1.346       .  A
C27          N28   1.365       .  A
C27        C1226   1.482       .  S
N28          C29   1.377       .  A
C29          N30   1.364       .  A
C29          C77   1.494       .  S
C31          N32   1.358       .  A
C31          N36   1.352       .  A
C31        C1178   1.473       .  S
N32          C33   1.364       .  A
C33          N34   1.369       .  A
C33          C74   1.484       .  S
N34          C35   1.367       .  A
C35          N36   1.354       .  A
C35        C1194   1.472       .  S
C37          N38   1.350       .  A
C37          N42   1.345       .  A
C37        C1146   1.475       .  S
N38          C39   1.364       .  A
C39          N40   1.377       .  A
C39          C57   1.494       .  S
N40          C41   1.377       .  A
C41          N42   1.357       .  A
C41        C1165   1.493       .  S
C43          N44   1.373       .  A
C43          N48   1.350       .  A
C43        C1117   1.495       .  S
N44          C45   1.379       .  A
C45          N46   1.371       .  A
C45          C54   1.497       .  S
N46          C47   1.359       .  A
C47          N48   1.344       .  A
C47        C1130   1.480       .  S
O49         Zr61   2.451   1_556  S
O49          C51   1.290       .  A
O50         Zr87   2.479   1_455  S
O50          C51   1.296       .  A
O52         Zr64   2.467       .  S
O52          C54   1.294       .  A
O53         Zr88   2.465   1_455  S
O53          C54   1.293       .  A
O55         Zr64   2.439   1_556  S
O55          C57   1.290       .  A
O56         Zr87   2.482       .  S
O56          C57   1.296   1_655  A
O58         Zr61   2.433       .  S
O58          C60   1.287       .  A
O59         Zr88   2.495   1_455  S
O59          C60   1.300       .  A
Zr61         O62   2.435       .  S
Zr61         O63   2.437       .  S
Zr61         O67   2.372       .  S
Zr61         O68   2.375       .  S
Zr61         O91   2.378   1_455  S
Zr61         O93   2.366   1_455  S
O62         H105   0.990       .  S
O63         H104   0.990       .  S
O63         H108   0.990       .  S
Zr64         O65   2.436       .  S
Zr64         O66   2.434       .  S
Zr64         O68   2.360       .  S
Zr64         O67   2.384       .  S
Zr64         O92   2.377   1_455  S
Zr64         O94   2.371   1_455  S
O65         H106   0.990       .  S
O65         H109   0.990       .  S
O66          H99   0.990       .  S
O67         Zr87   2.407   1_454  S
O68         Zr88   2.404   1_455  S
O68          H95   0.966       .  S
O69         Zr81   2.442       .  S
O69          C71   1.290       .  A
O70         Zr88   2.457       .  S
O70          C71   1.291       .  A
O72         Zr84   2.448   1_556  S
O72          C74   1.290       .  A
O73         Zr87   2.458       .  S
O73          C74   1.292       .  A
O75         Zr84   2.408       .  S
O75          C77   1.281       .  A
O76         Zr88   2.516       .  S
O76          C77   1.305       .  A
O78         Zr81   2.429   1_556  S
O78          C80   1.286       .  A
O79         Zr87   2.477       .  S
O79          C80   1.297       .  A
Zr81         O82   2.436       .  S
Zr81         O83   2.434       .  S
Zr81         O89   2.364       .  S
Zr81         O90   2.373       .  S
Zr81         O93   2.376       .  S
Zr81         O91   2.364       .  S
O82         H102   0.990       .  S
O82         H107   0.990       .  S
O83         H103   0.990       .  S
Zr84         O85   2.435       .  S
Zr84         O86   2.436       .  S
Zr84         O90   2.360       .  S
Zr84         O89   2.373       .  S
Zr84         O94   2.387       .  S
Zr84         O92   2.354       .  S
O85         H101   0.990       .  S
O86         H100   0.990       .  S
O86         H110   0.990       .  S
Zr87         O90   2.397   1_556  S
Zr87         O92   2.402   1_556  S
Zr87         O93   2.399   1_556  S
Zr88         O89   2.403       .  S
Zr88         O91   2.402       .  S
Zr88         O94   2.397       .  S
O89          H97   0.966       .  S
O92          H96   0.965   1_554  S
O93          H98   0.966   1_554  S
C111        N112   1.349   1_545  A
C111        N116   1.357       .  A
C111       C1082   1.468       .  S
N112        C113   1.352       .  A
C113        N114   1.365   1_565  A
C113       C1101   1.461       .  S
N114        C115   1.366       .  A
C115        N116   1.364       .  A
C115        C161   1.481       .  S
C117        N118   1.352       .  A
C117        N122   1.346   1_545  A
C117       C1069   1.467       .  S
N118        C119   1.362       .  A
C119        N120   1.376   1_545  A
C119        C190   1.493       .  S
N120        C121   1.376       .  A
C121        N122   1.355       .  A
C121       C1050   1.490       .  S
C123        N124   1.351       .  A
C123        N128   1.368       .  A
C123       C1021   1.468       .  S
N124        C125   1.349       .  A
C125        N126   1.360       .  A
C125       C1034   1.474       .  S
N126        C127   1.369       .  A
C127        N128   1.370       .  A
C127        C181   1.490       .  S
C129        N130   1.353       .  A
C129        N134   1.369       .  A
C129        C986   1.475       .  S
N130        C131   1.348       .  A
C131        N132   1.360       .  A
C131       C1002   1.475       .  S
N132        C133   1.368       .  A
C133        N134   1.371       .  A
C133        C170   1.492       .  S
C135        N136   1.351       .  A
C135        N140   1.363       .  A
C135        C954   1.478       .  S
N136        C137   1.350       .  A
C137        N138   1.361       .  A
C137        C973   1.476       .  S
N138        C139   1.366       .  A
C139        N140   1.367       .  A
C139        C187   1.476       .  S
C141        N142   1.360       .  A
C141        N146   1.350   1_545  A
C141        C925   1.471       .  S
N142        C143   1.368       .  A
C143        N144   1.365       .  A
C143        C184   1.484       .  S
N144        C145   1.364   1_545  A
C145        N146   1.352       .  A
C145        C941   1.462       .  S
C147        N148   1.352   1_545  A
C147        N152   1.358       .  A
C147        C890   1.475       .  S
N148        C149   1.356       .  A
C149        N150   1.371       .  A
C149        C906   1.484       .  S
N150        C151   1.372   1_565  A
C151        N152   1.362       .  A
C151        C167   1.492       .  S
C153        N154   1.354       .  A
C153        N158   1.373       .  A
C153        C877   1.488       .  S
N154        C155   1.346       .  A
C155        N156   1.355       .  A
C155        C858   1.468       .  S
N156        C157   1.365       .  A
C157        N158   1.376       .  A
C157        C164   1.492       .  S
O159       Zr171   2.435       .  S
O159        C161   1.288       .  A
O160       Zr197   2.463       .  S
O160        C161   1.294       .  A
O162       Zr174   2.462       .  S
O162        C164   1.294       .  A
O163       Zr198   2.458       .  S
O163        C164   1.292       .  A
O165       Zr174   2.475       .  S
O165        C167   1.296       .  A
O166       Zr197   2.447       .  S
O166        C167   1.290       .  A
O168       Zr171   2.450       .  S
O168        C170   1.290       .  A
O169       Zr198   2.470       .  S
O169        C170   1.294       .  A
Zr171       O172   2.436       .  S
Zr171       O173   2.433       .  S
Zr171       O177   2.370       .  S
Zr171       O178   2.365       .  S
Zr171       O201   2.373       .  S
Zr171       O203   2.384       .  S
O172        H215   0.990       .  S
O173        H214   0.990       .  S
O173        H218   0.990       .  S
Zr174       O175   2.437       .  S
Zr174       O176   2.435       .  S
Zr174       O178   2.379       .  S
Zr174       O177   2.366       .  S
Zr174       O202   2.376       .  S
Zr174       O204   2.375       .  S
O175        H216   0.990       .  S
O175        H219   0.990       .  S
O176        H209   0.990       .  S
O177       Zr197   2.400       .  S
O178       Zr198   2.404       .  S
O178        H205   0.966       .  S
O179       Zr191   2.437       .  S
O179        C181   1.287       .  A
O180       Zr198   2.481   1_556  S
O180        C181   1.297       .  A
O182       Zr194   2.421       .  S
O182        C184   1.284       .  A
O183       Zr197   2.478   1_556  S
O183        C184   1.296       .  A
O185       Zr194   2.441       .  S
O185        C187   1.287       .  A
O186       Zr198   2.455   1_556  S
O186        C187   1.292       .  A
O188       Zr191   2.452       .  S
O188        C190   1.291       .  A
O189       Zr197   2.459   1_556  S
O189        C190   1.291       .  A
Zr191       O192   2.436       .  S
Zr191       O193   2.434       .  S
Zr191       O199   2.375       .  S
Zr191       O200   2.361       .  S
Zr191       O203   2.367   1_556  S
Zr191       O201   2.381   1_556  S
O192        H212   0.990       .  S
O192        H217   0.990       .  S
O193        H213   0.989   1_556  S
Zr194       O195   2.433       .  S
Zr194       O196   2.435       .  S
Zr194       O200   2.370       .  S
Zr194       O199   2.368       .  S
Zr194       O204   2.363   1_556  S
Zr194       O202   2.380   1_556  S
O195        H211   0.990       .  S
O196        H210   0.990       .  S
O196        H220   0.990       .  S
Zr197       O200   2.389   1_554  S
Zr197       O202   2.405       .  S
Zr197       O203   2.402       .  S
Zr198       O199   2.398   1_554  S
Zr198       O201   2.394       .  S
Zr198       O204   2.399       .  S
O199        H207   0.966       .  S
O202        H206   0.968       .  S
O203        H208   0.966       .  S
C221        N222   1.354       .  A
C221        N226   1.346       .  A
C221        C829   1.467       .  S
N222        C223   1.364       .  A
C223        N224   1.376       .  A
C223        C277   1.493       .  S
N224        C225   1.375   1_545  A
C225        N226   1.353   1_565  A
C225        C842   1.487       .  S
C227        N228   1.359       .  A
C227        N232   1.347   1_545  A
C227        C810   1.467       .  S
N228        C229   1.368       .  A
C229        N230   1.363       .  A
C229        C294   1.476       .  S
N230        C231   1.361   1_545  A
C231        N232   1.349       .  A
C231        C797   1.456       .  S
C233        N234   1.367       .  A
C233        N238   1.353       .  A
C233        C762   1.469       .  S
N234        C235   1.368       .  A
C235        N236   1.368       .  A
C235        C297   1.487       .  S
N236        C237   1.359       .  A
C237        N238   1.348       .  A
C237        C781   1.476       .  S
C239        N240   1.375       .  A
C239        N244   1.355       .  A
C239        C730   1.484       .  S
N240        C241   1.375       .  A
C241        N242   1.364       .  A
C241        C274   1.492       .  S
N242        C243   1.353       .  A
C243        N244   1.346       .  A
C243        C749   1.464       .  S
C245        N246   1.360       .  A
C245        N250   1.350       .  A
C245        C698   1.465       .  S
N246        C247   1.364       .  A
C247        N248   1.369       .  A
C247        C291   1.475       .  S
N248        C249   1.361       .  A
C249        N250   1.348       .  A
C249        C714   1.471       .  S
C251        N252   1.358       .  A
C251        N256   1.351   1_545  A
C251        C669   1.476       .  S
N252        C253   1.366       .  A
C253        N254   1.376       .  A
C253        C300   1.505       .  S
N254        C255   1.376   1_545  A
C255        N256   1.358       .  A
C255        C685   1.486       .  S
C257        N258   1.351   1_545  A
C257        N262   1.365       .  A
C257        C634   1.482       .  S
N258        C259   1.350       .  A
C259        N260   1.361   1_565  A
C259        C653   1.469       .  S
N260        C261   1.367       .  A
C261        N262   1.372       .  A
C261        C271   1.487       .  S
C263        N264   1.379       .  A
C263        N268   1.357       .  A
C263        C605   1.493       .  S
N264        C265   1.379       .  A
C265        N266   1.360       .  A
C265        C280   1.497       .  S
N266        C267   1.350       .  A
C267        N268   1.347       .  A
C267        C618   1.470       .  S
O269       Zr281   2.452       .  S
O269        C271   1.290       .  A
O270       Zr307   2.461   1_455  S
O270        C271   1.295       .  A
O272       Zr284   2.446       .  S
O272        C274   1.291       .  A
O273       Zr308   2.470   1_455  S
O273        C274   1.294       .  A
O275       Zr284   2.456       .  S
O275        C277   1.292       .  A
O276       Zr307   2.468   1_455  S
O276        C277   1.293       .  A
O278       Zr281   2.461       .  S
O278        C280   1.294       .  A
O279       Zr308   2.463   1_455  S
O279        C280   1.291       .  A
Zr281       O282   2.435       .  S
Zr281       O283   2.436       .  S
Zr281       O287   2.374       .  S
Zr281       O288   2.370       .  S
Zr281       O311   2.367   1_455  S
Zr281       O313   2.380   1_455  S
O282        H325   0.990       .  S
O283        H324   0.990       .  S
O283        H328   0.990   1_455  S
Zr284       O285   2.437       .  S
Zr284       O286   2.437       .  S
Zr284       O288   2.377       .  S
Zr284       O287   2.368       .  S
Zr284       O312   2.372   1_455  S
Zr284       O314   2.377   1_455  S
O285        H326   0.990       .  S
O285        H329   0.990       .  S
O286        H319   0.990       .  S
O287       Zr307   2.401   1_455  S
O288       Zr308   2.406   1_455  S
O288        H315   0.966       .  S
O289       Zr301   2.433       .  S
O289        C291   1.286       .  A
O290       Zr308   2.456       .  S
O290        C291   1.293       .  A
O292       Zr304   2.423       .  S
O292        C294   1.285       .  A
O293       Zr307   2.463       .  S
O293        C294   1.294       .  A
O295       Zr304   2.435       .  S
O295        C297   1.287       .  A
O296       Zr308   2.473       .  S
O296        C297   1.295       .  A
O298       Zr301   2.455       .  S
O298        C300   1.292       .  A
O299       Zr307   2.485       .  S
O299        C300   1.297       .  A
Zr301       O302   2.437       .  S
Zr301       O303   2.433       .  S
Zr301       O309   2.375       .  S
Zr301       O310   2.360       .  S
Zr301       O313   2.370       .  S
Zr301       O311   2.379       .  S
O302        H322   0.990       .  S
O302        H327   0.990       .  S
O303        H323   0.990       .  S
Zr304       O305   2.433       .  S
Zr304       O306   2.435       .  S
Zr304       O310   2.376       .  S
Zr304       O309   2.366       .  S
Zr304       O314   2.368       .  S
Zr304       O312   2.372       .  S
O305        H321   0.990       .  S
O306        H320   0.990       .  S
O306        H330   0.990       .  S
Zr307       O310   2.395       .  S
Zr307       O312   2.404       .  S
Zr307       O313   2.397       .  S
Zr308       O309   2.400       .  S
Zr308       O311   2.400       .  S
Zr308       O314   2.397       .  S
O309        H317   0.965       .  S
O312        H316   0.966       .  S
O313        H318   0.966       .  S
C331       C1114   1.496       .  S
C331        C332   1.394   1_455  A
C331        C336   1.426       .  A
C332        C333   1.389       .  A
C332        H351   1.085       .  S
C333       C1213   1.473       .  S
C333        C334   1.401       .  A
C334        C335   1.422       .  A
C334        C341   1.402       .  A
C335        C336   1.429   1_655  A
C335        C340   1.420   1_655  A
C336        C337   1.407       .  A
C337        C338   1.406       .  A
C337        H347   1.083       .  S
C338        C339   1.407       .  A
C338        H348   1.083       .  S
C339        C340   1.425       .  A
C339        C346   1.419       .  A
C340        C343   1.427   1_455  A
C341        C342   1.390       .  A
C341        H349   1.083       .  S
C342        C343   1.404       .  A
C342        H350   1.082       .  S
C343        C344   1.411       .  A
C344        C701   1.485       .  S
C344        C345   1.391   1_655  A
C345        C346   1.393       .  A
C345        H352   1.085       .  S
C346        C602   1.487       .  S
C353        C893   1.484       .  S
C353        C354   1.397       .  A
C353        C358   1.418       .  A
C354        C355   1.391       .  A
C354        H373   1.086       .  S
C355        C861   1.479       .  S
C355        C356   1.411       .  A
C356        C357   1.425       .  A
C356        C363   1.403       .  A
C357        C358   1.425       .  A
C357        C362   1.421       .  A
C358        C359   1.407       .  A
C359        C360   1.401       .  A
C359        H369   1.083       .  S
C360        C361   1.406       .  A
C360        H370   1.083       .  S
C361        C362   1.427       .  A
C361        C368   1.420       .  A
C362        C365   1.424       .  A
C363        C364   1.393       .  A
C363        H371   1.083       .  S
C364        C365   1.405       .  A
C364        H372   1.082       .  S
C365        C366   1.410       .  A
C366        C621   1.479       .  S
C366        C367   1.392       .  A
C367        C368   1.395       .  A
C367        H374   1.085       .  S
C368        C637   1.486       .  S
C375       C1149   1.482       .  S
C375        C376   1.392       .  A
C375        C380   1.414       .  A
C376        C377   1.394       .  A
C376        H395   1.085       .  S
C377       C1133   1.484       .  S
C377        C378   1.417       .  A
C378        C379   1.426       .  A
C378        C385   1.406       .  A
C379        C380   1.426       .  A
C379        C384   1.422       .  A
C380        C381   1.405       .  A
C381        C382   1.397       .  A
C381        H391   1.083       .  S
C382        C383   1.405       .  A
C382        H392   1.083       .  S
C383        C384   1.427       .  A
C383        C390   1.416       .  A
C384        C387   1.426       .  A
C385        C386   1.400       .  A
C385        H393   1.083       .  S
C386        C387   1.405       .  A
C386        H394   1.083       .  S
C387        C388   1.415       .  A
C388        C874   1.485       .  S
C388        C389   1.392       .  A
C389        C390   1.393       .  A
C389        H396   1.085       .  S
C390        C957   1.488       .  S
C397       C1085   1.483       .  S
C397        C398   1.393       .  A
C397        C402   1.414       .  A
C398        C399   1.395       .  A
C398        H417   1.086       .  S
C399       C1005   1.489       .  S
C399        C400   1.418       .  A
C400        C401   1.428       .  A
C400        C407   1.405       .  A
C401        C402   1.425       .  A
C401        C406   1.422       .  A
C402        C403   1.406       .  A
C403        C404   1.397       .  A
C403        H413   1.082       .  S
C404        C405   1.403       .  A
C404        H414   1.083       .  S
C405        C406   1.426       .  A
C405        C412   1.415       .  A
C406        C409   1.424       .  A
C407        C408   1.399       .  A
C407        H415   1.083       .  S
C408        C409   1.406       .  A
C408        H416   1.083       .  S
C409        C410   1.416       .  A
C410        C717   1.479       .  S
C410        C411   1.395       .  A
C411        C412   1.394       .  A
C411        H418   1.086       .  S
C412        C666   1.486       .  S
C419       C1245   1.482       .  S
C419        C420   1.388   1_455  A
C419        C424   1.412       .  A
C420        C421   1.396       .  A
C420        H439   1.086       .  S
C421       C1277   1.489       .  S
C421        C422   1.423       .  A
C422        C423   1.427       .  A
C422        C429   1.409       .  A
C423        C424   1.427   1_655  A
C423        C428   1.421       .  A
C424        C425   1.405       .  A
C425        C426   1.399       .  A
C425        H435   1.083       .  S
C426        C427   1.405       .  A
C426        H436   1.083       .  S
C427        C428   1.422   1_455  A
C427        C434   1.412       .  A
C428        C431   1.427       .  A
C429        C430   1.407       .  A
C429        H437   1.083       .  S
C430        C431   1.405       .  A
C430        H438   1.083       .  S
C431        C432   1.424       .  A
C432        C682   1.490       .  S
C432        C433   1.391       .  A
C433        C434   1.393   1_655  A
C433        H440   1.088       .  S
C434        C650   1.477       .  S
C441        C922   1.482       .  S
C441        C442   1.392       .  A
C441        C446   1.412       .  A
C442        C443   1.400       .  A
C442        H461   1.085       .  S
C443        C970   1.488       .  S
C443        C444   1.418       .  A
C444        C445   1.425       .  A
C444        C451   1.408       .  A
C445        C446   1.425       .  A
C445        C450   1.420       .  A
C446        C447   1.404       .  A
C447        C448   1.395       .  A
C447        H457   1.083       .  S
C448        C449   1.405       .  A
C448        H458   1.082       .  S
C449        C450   1.424       .  A
C449        C456   1.413       .  A
C450        C453   1.425       .  A
C451        C452   1.397       .  A
C451        H459   1.081       .  S
C452        C453   1.402       .  A
C452        H460   1.083       .  S
C453        C454   1.413       .  A
C454        C746   1.482       .  S
C454        C455   1.392       .  A
C455        C456   1.394       .  A
C455        H462   1.086       .  S
C456        C826   1.480       .  S
C463       C1197   1.483       .  S
C463        C464   1.388       .  A
C463        C468   1.412       .  A
C464        C465   1.397       .  A
C464        H483   1.085       .  S
C465       C1162   1.496   1_655  S
C465        C466   1.426       .  A
C466        C467   1.428       .  A
C466        C473   1.407   1_655  A
C467        C468   1.425       .  A
C467        C472   1.424       .  A
C468        C469   1.403       .  A
C469        C470   1.399       .  A
C469        H479   1.083       .  S
C470        C471   1.406       .  A
C470        H480   1.083       .  S
C471        C472   1.428       .  A
C471        C478   1.414       .  A
C472        C475   1.429       .  A
C473        C474   1.404       .  A
C473        H481   1.083       .  S
C474        C475   1.406   1_455  A
C474        H482   1.083       .  S
C475        C476   1.422       .  A
C476        C733   1.491   1_655  S
C476        C477   1.391       .  A
C477        C478   1.390       .  A
C477        H484   1.086       .  S
C478        C765   1.482       .  S
C485       C1258   1.490       .  S
C485        C486   1.396       .  A
C485        C490   1.421       .  A
C486        C487   1.392   1_554  A
C486        H505   1.086       .  S
C487       C1341   1.483       .  S
C487        C488   1.412       .  A
C488        C489   1.427   1_556  A
C488        C495   1.404       .  A
C489        C490   1.427       .  A
C489        C494   1.423       .  A
C490        C491   1.407       .  A
C491        C492   1.403       .  A
C491        H501   1.083       .  S
C492        C493   1.407       .  A
C492        H502   1.083       .  S
C493        C494   1.429       .  A
C493        C500   1.425       .  A
C494        C497   1.424   1_554  A
C495        C496   1.394       .  A
C495        H503   1.082       .  S
C496        C497   1.403       .  A
C496        H504   1.083       .  S
C497        C498   1.407       .  A
C498        C938   1.476       .  S
C498        C499   1.390   1_556  A
C499        C500   1.397       .  A
C499        H506   1.086       .  S
C500        C909   1.494       .  S
C507       C1181   1.489   1_554  S
C507        C508   1.398       .  A
C507        C512   1.419       .  A
C508        C509   1.392       .  A
C508        H527   1.086       .  S
C509       C1229   1.486       .  S
C509        C510   1.416       .  A
C510        C511   1.427       .  A
C510        C517   1.405       .  A
C511        C512   1.427       .  A
C511        C516   1.423       .  A
C512        C513   1.408   1_554  A
C513        C514   1.397       .  A
C513        H523   1.081       .  S
C514        C515   1.402   1_556  A
C514        H524   1.083       .  S
C515        C516   1.425       .  A
C515        C522   1.412       .  A
C516        C519   1.426       .  A
C517        C518   1.400       .  A
C517        H525   1.083       .  S
C518        C519   1.406       .  A
C518        H526   1.083       .  S
C519        C520   1.419       .  A
C520        C989   1.486       .  S
C520        C521   1.394       .  A
C521        C522   1.389       .  A
C521        H528   1.086       .  S
C522       C1018   1.480   1_554  S
C529       C1309   1.479       .  S
C529        C530   1.391       .  A
C529        C534   1.412       .  A
C530        C531   1.395   1_655  A
C530        H549   1.087       .  S
C531       C1354   1.481       .  S
C531        C532   1.416       .  A
C532        C533   1.422   1_455  A
C532        C539   1.406       .  A
C533        C534   1.425       .  A
C533        C538   1.418       .  A
C534        C535   1.403       .  A
C535        C536   1.396       .  A
C535        H545   1.083       .  S
C536        C537   1.405       .  A
C536        H546   1.083       .  S
C537        C538   1.424       .  A
C537        C544   1.407       .  A
C538        C541   1.429   1_655  A
C539        C540   1.404       .  A
C539        H547   1.083       .  S
C540        C541   1.406       .  A
C540        H548   1.083       .  S
C541        C542   1.420       .  A
C542        C845   1.488       .  S
C542        C543   1.392   1_455  A
C543        C544   1.390       .  A
C543        H550   1.087       .  S
C544        C794   1.475       .  S
C551       C1066   1.482       .  S
C551        C552   1.392       .  A
C551        C556   1.412       .  A
C552        C553   1.392       .  A
C552        H571   1.086       .  S
C553       C1037   1.480       .  S
C553        C554   1.416       .  A
C554        C555   1.425       .  A
C554        C561   1.405       .  A
C555        C556   1.425       .  A
C555        C560   1.420       .  A
C556        C557   1.403       .  A
C557        C558   1.395       .  A
C557        H567   1.082       .  S
C558        C559   1.405       .  A
C558        H568   1.082       .  S
C559        C560   1.425       .  A
C559        C566   1.413       .  A
C560        C563   1.426       .  A
C561        C562   1.400       .  A
C561        H569   1.083       .  S
C562        C563   1.406       .  A
C562        H570   1.083       .  S
C563        C564   1.417       .  A
C564        C778   1.489       .  S
C564        C565   1.397       .  A
C565        C566   1.391       .  A
C565        H572   1.085       .  S
C566        C813   1.483       .  S
C573       C1325   1.485       .  S
C573        C574   1.397   1_556  A
C573        C578   1.417   1_556  A
C574        C575   1.390       .  A
C574        H593   1.086       .  S
C575       C1290   1.483       .  S
C575        C576   1.412       .  A
C576        C577   1.428       .  A
C576        C583   1.404       .  A
C577        C578   1.425       .  A
C577        C582   1.421       .  A
C578        C579   1.407   1_554  A
C579        C580   1.402       .  A
C579        H589   1.083       .  S
C580        C581   1.406   1_556  A
C580        H590   1.082       .  S
C581        C582   1.430       .  A
C581        C588   1.424       .  A
C582        C585   1.424       .  A
C583        C584   1.393       .  A
C583        H591   1.082       .  S
C584        C585   1.403       .  A
C584        H592   1.083       .  S
C585        C586   1.406       .  A
C586       C1098   1.475       .  S
C586        C587   1.389       .  A
C587        C588   1.395       .  A
C587        H594   1.086       .  S
C588       C1053   1.496   1_554  S
C595        C600   1.383       .  A
C595        C596   1.403       .  A
C595        S601   1.713       .  A
C596        C597   1.406       .  A
C596        H607   1.083       .  S
C597        C606   1.370       .  A
C597        C598   1.384       .  A
C598        C599   1.410       .  A
C598        S604   1.727       .  A
C599        C600   1.414       .  A
C599        H608   1.083       .  S
C600        C603   1.377       .  A
S601        C602   1.726       .  A
C602        C603   1.401       .  A
C603        H609   1.084       .  S
S604        C605   1.728       .  A
C605        C606   1.394       .  A
C606        H610   1.084       .  S
C611        C616   1.387       .  A
C611        C612   1.399       .  A
C611        S617   1.707       .  A
C612        C613   1.402       .  A
C612        H623   1.083       .  S
C613        C622   1.365       .  A
C613        C614   1.386       .  A
C614        C615   1.402       .  A
C614        S620   1.711       .  A
C615        C616   1.404       .  A
C615        H624   1.083       .  S
C616        C619   1.370       .  A
S617        C618   1.721       .  A
C618        C619   1.387       .  A
C619        H625   1.083       .  S
S620        C621   1.722       .  A
C621        C622   1.388       .  A
C622        H626   1.084       .  S
C627        C632   1.387       .  A
C627        C628   1.401       .  A
C627        S633   1.698       .  A
C628        C629   1.400       .  A
C628        H639   1.083       .  S
C629        C638   1.375       .  A
C629        C630   1.386       .  A
C630        C631   1.410       .  A
C630        S636   1.707       .  A
C631        C632   1.408       .  A
C631        H640   1.083       .  S
C632        C635   1.384       .  A
S633        C634   1.726       .  A
C634        C635   1.391       .  A
C635        H641   1.083       .  S
S636        C637   1.735       .  A
C637        C638   1.387       .  A
C638        H642   1.083       .  S
C643        C648   1.384       .  A
C643        C644   1.402       .  A
C643        S649   1.712       .  A
C644        C645   1.405       .  A
C644        H655   1.083       .  S
C645        C654   1.369       .  A
C645        C646   1.386       .  A
C646        C647   1.402       .  A
C646        S652   1.713       .  A
C647        C648   1.405       .  A
C647        H656   1.083   1_455  S
C648        C651   1.367       .  A
S649        C650   1.723       .  A
C650        C651   1.393       .  A
C651        H657   1.084   1_455  S
S652        C653   1.723       .  A
C653        C654   1.388       .  A
C654        H658   1.083       .  S
C659        C664   1.385       .  A
C659        C660   1.410       .  A
C659        S665   1.720       .  A
C660        C661   1.412       .  A
C660        H671   1.083       .  S
C661        C670   1.380       .  A
C661        C662   1.387       .  A
C662        C663   1.399       .  A
C662        S668   1.708       .  A
C663        C664   1.401       .  A
C663        H672   1.083       .  S
C664        C667   1.367       .  A
S665        C666   1.728       .  A
C666        C667   1.388       .  A
C667        H673   1.084       .  S
S668        C669   1.719       .  A
C669        C670   1.392       .  A
C670        H674   1.083       .  S
C675        C680   1.382       .  A
C675        C676   1.416       .  A
C675        S681   1.719       .  A
C676        C677   1.415       .  A
C676        H687   1.082       .  S
C677        C686   1.390       .  A
C677        C678   1.385       .  A
C678        C679   1.403       .  A
C678        S684   1.704       .  A
C679        C680   1.403       .  A
C679        H688   1.083       .  S
C680        C683   1.376       .  A
S681        C682   1.737       .  A
C682        C683   1.394       .  A
C683        H689   1.084       .  S
S684        C685   1.724       .  A
C685        C686   1.397       .  A
C686        H690   1.083       .  S
C691        C696   1.386       .  A
C691        C692   1.400       .  A
C691        S697   1.712       .  A
C692        C693   1.404       .  A
C692        H703   1.083       .  S
C693        C702   1.366       .  A
C693        C694   1.385       .  A
C694        C695   1.398       .  A
C694        S700   1.705       .  A
C695        C696   1.400       .  A
C695        H704   1.083       .  S
C696        C699   1.363       .  A
S697        C698   1.722       .  A
C698        C699   1.386       .  A
C699        H705   1.084       .  S
S700        C701   1.724       .  A
C701        C702   1.393       .  A
C702        H706   1.084   1_655  S
C707        C712   1.387       .  A
C707        C708   1.400       .  A
C707        S713   1.698       .  A
C708        C709   1.399       .  A
C708        H719   1.083       .  S
C709        C718   1.372       .  A
C709        C710   1.386       .  A
C710        C711   1.407       .  A
C710        S716   1.706       .  A
C711        C712   1.405       .  A
C711        H720   1.083       .  S
C712        C715   1.380       .  A
S713        C714   1.723       .  A
C714        C715   1.387       .  A
C715        H721   1.083       .  S
S716        C717   1.729       .  A
C717        C718   1.386       .  A
C718        H722   1.083       .  S
C723        C728   1.384       .  A
C723        C724   1.408       .  A
C723        S729   1.726       .  A
C724        C725   1.413       .  A
C724        H735   1.083       .  S
C725        C734   1.375       .  A
C725        C726   1.383       .  A
C726        C727   1.402       .  A
C726        S732   1.713       .  A
C727        C728   1.405       .  A
C727        H736   1.083       .  S
C728        C731   1.366       .  A
S729        C730   1.726       .  A
C730        C731   1.391       .  A
C731        H737   1.084       .  S
S732        C733   1.725       .  A
C733        C734   1.400       .  A
C734        H738   1.084       .  S
C739        C744   1.385       .  A
C739        C740   1.406       .  A
C739        S745   1.715       .  A
C740        C741   1.407       .  A
C740        H751   1.083       .  S
C741        C750   1.373       .  A
C741        C742   1.387       .  A
C742        C743   1.399       .  A
C742        S748   1.708       .  A
C743        C744   1.402       .  A
C743        H752   1.083       .  S
C744        C747   1.366       .  A
S745        C746   1.726       .  A
C746        C747   1.389       .  A
C747        H753   1.084       .  S
S748        C749   1.718       .  A
C749        C750   1.387       .  A
C750        H754   1.083       .  S
C755        C760   1.385       .  A
C755        C756   1.404       .  A
C755        S761   1.717       .  A
C756        C757   1.408       .  A
C756        H767   1.083       .  S
C757        C766   1.370       .  A
C757        C758   1.384       .  A
C758        C759   1.400       .  A
C758        S764   1.709       .  A
C759        C760   1.403       .  A
C759        H768   1.083       .  S
C760        C763   1.366       .  A
S761        C762   1.723       .  A
C762        C763   1.387       .  A
C763        H769   1.084       .  S
S764        C765   1.723       .  A
C765        C766   1.396       .  A
C766        H770   1.084       .  S
C771        C776   1.385       .  A
C771        C772   1.405       .  A
C771        S777   1.714       .  A
C772        C773   1.407       .  A
C772        H783   1.083       .  S
C773        C782   1.372       .  A
C773        C774   1.386       .  A
C774        C775   1.401       .  A
C774        S780   1.713       .  A
C775        C776   1.404       .  A
C775        H784   1.083       .  S
C776        C779   1.368       .  A
S777        C778   1.726       .  A
C778        C779   1.393       .  A
C779        H785   1.084       .  S
S780        C781   1.720       .  A
C781        C782   1.391       .  A
C782        H786   1.083       .  S
C787        C792   1.385       .  A
C787        C788   1.400       .  A
C787        S793   1.706       .  A
C788        C789   1.401       .  A
C788        H799   1.083       .  S
C789        C798   1.366       .  A
C789        C790   1.386       .  A
C790        C791   1.399       .  A
C790        S796   1.707       .  A
C791        C792   1.403       .  A
C791        H800   1.083       .  S
C792        C795   1.365       .  A
S793        C794   1.722       .  A
C794        C795   1.391       .  A
C795        H801   1.084       .  S
S796        C797   1.720       .  A
C797        C798   1.384       .  A
C798        H802   1.083       .  S
C803        C808   1.386       .  A
C803        C804   1.402       .  A
C803        S809   1.716       .  A
C804        C805   1.406       .  A
C804        H815   1.083       .  S
C805        C814   1.367       .  A
C805        C806   1.386       .  A
C806        C807   1.400       .  A
C806        S812   1.711       .  A
C807        C808   1.403       .  A
C807        H816   1.083       .  S
C808        C811   1.364       .  A
S809        C810   1.720       .  A
C810        C811   1.386       .  A
C811        H817   1.084       .  S
S812        C813   1.722       .  A
C813        C814   1.392       .  A
C814        H818   1.084       .  S
C819        C824   1.386       .  A
C819        C820   1.402       .  A
C819        S825   1.710       .  A
C820        C821   1.404       .  A
C820        H831   1.083       .  S
C821        C830   1.368       .  A
C821        C822   1.387       .  A
C822        C823   1.398       .  A
C822        S828   1.709       .  A
C823        C824   1.402       .  A
C823        H832   1.083       .  S
C824        C827   1.364       .  A
S825        C826   1.724       .  A
C826        C827   1.388       .  A
C827        H833   1.084       .  S
S828        C829   1.719       .  A
C829        C830   1.387       .  A
C830        H834   1.083       .  S
C835        C840   1.384       .  A
C835        C836   1.406       .  A
C835        S841   1.724       .  A
C836        C837   1.411       .  A
C836        H847   1.083       .  S
C837        C846   1.373       .  A
C837        C838   1.383       .  A
C838        C839   1.403       .  A
C838        S844   1.713       .  A
C839        C840   1.406       .  A
C839        H848   1.083       .  S
C840        C843   1.367       .  A
S841        C842   1.725       .  A
C842        C843   1.394       .  A
C843        H849   1.083       .  S
S844        C845   1.726       .  A
C845        C846   1.399       .  A
C846        H850   1.084       .  S
C851        C856   1.387       .  A
C851        C852   1.401       .  A
C851        S857   1.704       .  A
C852        C853   1.402       .  A
C852        H863   1.083       .  S
C853        C862   1.373       .  A
C853        C854   1.387       .  A
C854        C855   1.404       .  A
C854        S860   1.705       .  A
C855        C856   1.403       .  A
C855        H864   1.083       .  S
C856        C859   1.375       .  A
S857        C858   1.721       .  A
C858        C859   1.385       .  A
C859        H865   1.083       .  S
S860        C861   1.726       .  A
C861        C862   1.386       .  A
C862        H866   1.083       .  S
C867        C872   1.384       .  A
C867        C868   1.401       .  A
C867        S873   1.711       .  A
C868        C869   1.405       .  A
C868        H879   1.083       .  S
C869        C878   1.366       .  A
C869        C870   1.384       .  A
C870        C871   1.407       .  A
C870        S876   1.725       .  A
C871        C872   1.412       .  A
C871        H880   1.083       .  S
C872        C875   1.374       .  A
S873        C874   1.724       .  A
C874        C875   1.398       .  A
C875        H881   1.084       .  S
S876        C877   1.727       .  A
C877        C878   1.392       .  A
C878        H882   1.084       .  S
C883        C888   1.386       .  A
C883        C884   1.400       .  A
C883        S889   1.709       .  A
C884        C885   1.403       .  A
C884        H895   1.083       .  S
C885        C894   1.369       .  A
C885        C886   1.385       .  A
C886        C887   1.405       .  A
C886        S892   1.713       .  A
C887        C888   1.407       .  A
C887        H896   1.083       .  S
C888        C891   1.373       .  A
S889        C890   1.721       .  A
C890        C891   1.390       .  A
C891        H897   1.083   1_545  S
S892        C893   1.725       .  A
C893        C894   1.391       .  A
C894        H898   1.084       .  S
C899        C904   1.385       .  A
C899        C900   1.406       .  A
C899        S905   1.722       .  A
C900        C901   1.410       .  A
C900        H911   1.083       .  S
C901        C910   1.373       .  A
C901        C902   1.384       .  A
C902        C903   1.403       .  A
C902        S908   1.714       .  A
C903        C904   1.406       .  A
C903        H912   1.083       .  S
C904        C907   1.370       .  A
S905        C906   1.726       .  A
C906        C907   1.391       .  A
C907        H913   1.083       .  S
S908        C909   1.725       .  A
C909        C910   1.398       .  A
C910        H914   1.084       .  S
C915        C920   1.386       .  A
C915        C916   1.407       .  A
C915        S921   1.708       .  A
C916        C917   1.406       .  A
C916        H927   1.083       .  S
C917        C926   1.380       .  A
C917        C918   1.387       .  A
C918        C919   1.401       .  A
C918        S924   1.702       .  A
C919        C920   1.401       .  A
C919        H928   1.083       .  S
C920        C923   1.373       .  A
S921        C922   1.730       .  A
C922        C923   1.386       .  A
C923        H929   1.083       .  S
S924        C925   1.720       .  A
C925        C926   1.388       .  A
C926        H930   1.083       .  S
C931        C936   1.385       .  A
C931        C932   1.404       .  A
C931        S937   1.710       .  A
C932        C933   1.405       .  A
C932        H943   1.083       .  S
C933        C942   1.372       .  A
C933        C934   1.386       .  A
C934        C935   1.399       .  A
C934        S940   1.707       .  A
C935        C936   1.402       .  A
C935        H944   1.083       .  S
C936        C939   1.367       .  A
S937        C938   1.726       .  A
C938        C939   1.388       .  A
C939        H945   1.084       .  S
S940        C941   1.720       .  A
C941        C942   1.387       .  A
C942        H946   1.083       .  S
C947        C952   1.385   1_554  A
C947        C948   1.405       .  A
C947        S953   1.718       .  A
C948        C949   1.409       .  A
C948        H959   1.083       .  S
C949        C958   1.371       .  A
C949        C950   1.385   1_554  A
C950        C951   1.399       .  A
C950        S956   1.708       .  A
C951        C952   1.402       .  A
C951        H960   1.083       .  S
C952        C955   1.365       .  A
S953        C954   1.725   1_554  A
C954        C955   1.388       .  A
C955        H961   1.083       .  S
S956        C957   1.723   1_556  A
C957        C958   1.397       .  A
C958        H962   1.084       .  S
C963        C968   1.385       .  A
C963        C964   1.400       .  A
C963        S969   1.710       .  A
C964        C965   1.403       .  A
C964        H975   1.083       .  S
C965        C974   1.365       .  A
C965        C966   1.386       .  A
C966        C967   1.401       .  A
C966        S972   1.715       .  A
C967        C968   1.405       .  A
C967        H976   1.083       .  S
C968        C971   1.366       .  A
S969        C970   1.725       .  A
C970        C971   1.392       .  A
C971        H977   1.084       .  S
S972        C973   1.722       .  A
C973        C974   1.389       .  A
C974        H978   1.083       .  S
C979        C984   1.385       .  A
C979        C980   1.405       .  A
C979        S985   1.718       .  A
C980        C981   1.408       .  A
C980        H991   1.083       .  S
C981        C990   1.371       .  A
C981        C982   1.384       .  A
C982        C983   1.401       .  A
C982        S988   1.709       .  A
C983        C984   1.404       .  A
C983        H992   1.083       .  S
C984        C987   1.368       .  A
S985        C986   1.723       .  A
C986        C987   1.389       .  A
C987        H993   1.083       .  S
S988        C989   1.723       .  A
C989        C990   1.396       .  A
C990        H994   1.084       .  S
C995       C1000   1.386       .  A
C995        C996   1.402       .  A
C995       S1001   1.715       .  A
C996        C997   1.406       .  A
C996       H1007   1.083       .  S
C997       C1006   1.369       .  A
C997        C998   1.385       .  A
C998        C999   1.404       .  A
C998       S1004   1.714       .  A
C999       C1000   1.406       .  A
C999       H1008   1.083       .  S
C1000      C1003   1.371       .  A
S1001      C1002   1.722       .  A
C1002      C1003   1.389       .  A
C1003      H1009   1.083       .  S
S1004      C1005   1.725       .  A
C1005      C1006   1.393       .  A
C1006      H1010   1.084       .  S
C1011      C1016   1.384       .  A
C1011      C1012   1.406       .  A
C1011      S1017   1.709       .  A
C1012      C1013   1.406       .  A
C1012      H1023   1.083       .  S
C1013      C1022   1.376       .  A
C1013      C1014   1.385       .  A
C1014      C1015   1.403       .  A
C1014      S1020   1.707       .  A
C1015      C1016   1.404       .  A
C1015      H1024   1.083       .  S
C1016      C1019   1.373       .  A
S1017      C1018   1.729       .  A
C1018      C1019   1.392       .  A
C1019      H1025   1.084       .  S
S1020      C1021   1.724       .  A
C1021      C1022   1.388       .  A
C1022      H1026   1.083       .  S
C1027      C1032   1.387       .  A
C1027      C1028   1.401       .  A
C1027      S1033   1.702       .  A
C1028      C1029   1.401       .  A
C1028      H1039   1.083       .  S
C1029      C1038   1.372       .  A
C1029      C1030   1.385       .  A
C1030      C1031   1.407       .  A
C1030      S1036   1.706       .  A
C1031      C1032   1.406       .  A
C1031      H1040   1.083       .  S
C1032      C1035   1.379       .  A
S1033      C1034   1.723       .  A
C1034      C1035   1.388       .  A
C1035      H1041   1.083       .  S
S1036      C1037   1.732       .  A
C1037      C1038   1.387       .  A
C1038      H1042   1.083       .  S
C1043      C1048   1.384       .  A
C1043      C1044   1.406       .  A
C1043      S1049   1.725       .  A
C1044      C1045   1.411       .  A
C1044      H1055   1.083       .  S
C1045      C1054   1.371       .  A
C1045      C1046   1.384       .  A
C1046      C1047   1.401       .  A
C1046      S1052   1.715       .  A
C1047      C1048   1.406       .  A
C1047      H1056   1.083       .  S
C1048      C1051   1.366       .  A
S1049      C1050   1.726       .  A
C1050      C1051   1.394       .  A
C1051      H1057   1.083       .  S
S1052      C1053   1.725       .  A
C1053      C1054   1.399       .  A
C1054      H1058   1.084   1_556  S
C1059      C1064   1.385       .  A
C1059      C1060   1.403       .  A
C1059      S1065   1.714       .  A
C1060      C1061   1.405       .  A
C1060      H1071   1.083       .  S
C1061      C1070   1.369       .  A
C1061      C1062   1.387       .  A
C1062      C1063   1.398       .  A
C1062      S1068   1.709       .  A
C1063      C1064   1.402       .  A
C1063      H1072   1.083       .  S
C1064      C1067   1.363       .  A
S1065      C1066   1.723       .  A
C1066      C1067   1.390       .  A
C1067      H1073   1.084       .  S
S1068      C1069   1.720       .  A
C1069      C1070   1.387       .  A
C1070      H1074   1.083   1_545  S
C1075      C1080   1.387       .  A
C1075      C1076   1.399       .  A
C1075      S1081   1.710       .  A
C1076      C1077   1.402       .  A
C1076      H1087   1.083       .  S
C1077      C1086   1.365       .  A
C1077      C1078   1.385       .  A
C1078      C1079   1.404       .  A
C1078      S1084   1.713       .  A
C1079      C1080   1.406       .  A
C1079      H1088   1.083       .  S
C1080      C1083   1.370       .  A
S1081      C1082   1.718       .  A
C1082      C1083   1.388       .  A
C1083      H1089   1.083       .  S
S1084      C1085   1.724       .  A
C1085      C1086   1.390       .  A
C1086      H1090   1.084       .  S
C1091      C1096   1.384       .  A
C1091      C1092   1.405       .  A
C1091      S1097   1.709       .  A
C1092      C1093   1.406       .  A
C1092      H1103   1.083       .  S
C1093      C1102   1.372       .  A
C1093      C1094   1.386       .  A
C1094      C1095   1.398       .  A
C1094      S1100   1.704       .  A
C1095      C1096   1.400       .  A
C1095      H1104   1.083       .  S
C1096      C1099   1.366       .  A
S1097      C1098   1.728       .  A
C1098      C1099   1.388       .  A
C1099      H1105   1.084       .  S
S1100      C1101   1.718       .  A
C1101      C1102   1.389       .  A
C1102      H1106   1.083       .  S
C1107      C1112   1.383       .  A
C1107      C1108   1.400       .  A
C1107      S1113   1.712       .  A
C1108      C1109   1.405       .  A
C1108      H1119   1.083       .  S
C1109      C1118   1.364       .  A
C1109      C1110   1.383       .  A
C1110      C1111   1.411       .  A
C1110      S1116   1.731       .  A
C1111      C1112   1.416       .  A
C1111      H1120   1.083   1_455  S
C1112      C1115   1.376       .  A
S1113      C1114   1.725       .  A
C1114      C1115   1.404       .  A
C1115      H1121   1.084   1_455  S
S1116      C1117   1.729       .  A
C1117      C1118   1.395       .  A
C1118      H1122   1.083       .  S
C1123      C1128   1.387       .  A
C1123      C1124   1.399       .  A
C1123      S1129   1.696       .  A
C1124      C1125   1.399       .  A
C1124      H1135   1.083       .  S
C1125      C1134   1.373       .  A
C1125      C1126   1.386       .  A
C1126      C1127   1.408       .  A
C1126      S1132   1.705       .  A
C1127      C1128   1.406       .  A
C1127      H1136   1.083       .  S
C1128      C1131   1.382       .  A
S1129      C1130   1.726       .  A
C1130      C1131   1.390       .  A
C1131      H1137   1.083       .  S
S1132      C1133   1.735       .  A
C1133      C1134   1.386       .  A
C1134      H1138   1.084       .  S
C1139      C1144   1.386       .  A
C1139      C1140   1.402   1_556  A
C1139      S1145   1.711       .  A
C1140      C1141   1.405   1_554  A
C1140      H1151   1.083       .  S
C1141      C1150   1.369   1_556  A
C1141      C1142   1.385       .  A
C1142      C1143   1.403       .  A
C1142      S1148   1.710       .  A
C1143      C1144   1.404       .  A
C1143      H1152   1.083       .  S
C1144      C1147   1.371       .  A
S1145      C1146   1.723       .  A
C1146      C1147   1.388       .  A
C1147      H1153   1.083       .  S
S1148      C1149   1.722   1_556  A
C1149      C1150   1.392       .  A
C1150      H1154   1.084       .  S
C1155      C1160   1.383       .  A
C1155      C1156   1.397       .  A
C1155      S1161   1.710       .  A
C1156      C1157   1.402       .  A
C1156      H1167   1.083       .  S
C1157      C1166   1.362       .  A
C1157      C1158   1.383       .  A
C1158      C1159   1.411       .  A
C1158      S1164   1.730       .  A
C1159      C1160   1.416       .  A
C1159      H1168   1.083       .  S
C1160      C1163   1.375       .  A
S1161      C1162   1.723       .  A
C1162      C1163   1.404       .  A
C1163      H1169   1.084   1_455  S
S1164      C1165   1.730       .  A
C1165      C1166   1.392       .  A
C1166      H1170   1.083       .  S
C1171      C1176   1.386       .  A
C1171      C1172   1.400       .  A
C1171      S1177   1.711       .  A
C1172      C1173   1.403       .  A
C1172      H1183   1.083       .  S
C1173      C1182   1.365       .  A
C1173      C1174   1.385       .  A
C1174      C1175   1.403       .  A
C1174      S1180   1.714       .  A
C1175      C1176   1.406       .  A
C1175      H1184   1.083       .  S
C1176      C1179   1.370       .  A
S1177      C1178   1.721       .  A
C1178      C1179   1.388       .  A
C1179      H1185   1.083       .  S
S1180      C1181   1.726       .  A
C1181      C1182   1.391       .  A
C1182      H1186   1.084   1_556  S
C1187      C1192   1.385       .  A
C1187      C1188   1.404       .  A
C1187      S1193   1.713       .  A
C1188      C1189   1.406       .  A
C1188      H1199   1.083       .  S
C1189      C1198   1.371       .  A
C1189      C1190   1.383       .  A
C1190      C1191   1.406       .  A
C1190      S1196   1.714       .  A
C1191      C1192   1.407       .  A
C1191      H1200   1.083       .  S
C1192      C1195   1.374       .  A
S1193      C1194   1.723       .  A
C1194      C1195   1.390       .  A
C1195      H1201   1.083       .  S
S1196      C1197   1.728       .  A
C1197      C1198   1.395       .  A
C1198      H1202   1.084       .  S
C1203      C1208   1.385       .  A
C1203      C1204   1.399       .  A
C1203      S1209   1.710       .  A
C1204      C1205   1.403       .  A
C1204      H1215   1.083       .  S
C1205      C1214   1.363       .  A
C1205      C1206   1.385       .  A
C1206      C1207   1.398       .  A
C1206      S1212   1.706       .  A
C1207      C1208   1.401       .  A
C1207      H1216   1.083       .  S
C1208      C1211   1.363       .  A
S1209      C1210   1.722       .  A
C1210      C1211   1.387       .  A
C1211      H1217   1.084       .  S
S1212      C1213   1.721       .  A
C1213      C1214   1.390       .  A
C1214      H1218   1.084       .  S
C1219      C1224   1.386       .  A
C1219      C1220   1.402       .  A
C1219      S1225   1.705       .  A
C1220      C1221   1.402       .  A
C1220      H1231   1.083       .  S
C1221      C1230   1.374       .  A
C1221      C1222   1.384       .  A
C1222      C1223   1.413       .  A
C1222      S1228   1.715       .  A
C1223      C1224   1.412       .  A
C1223      H1232   1.083       .  S
C1224      C1227   1.387       .  A
S1225      C1226   1.723       .  A
C1226      C1227   1.394       .  A
C1227      H1233   1.083       .  S
S1228      C1229   1.732       .  A
C1229      C1230   1.390       .  A
C1230      H1234   1.084       .  S
C1235      C1240   1.385       .  A
C1235      C1236   1.404       .  A
C1235      S1241   1.713       .  A
C1236      C1237   1.406       .  A
C1236      H1247   1.083       .  S
C1237      C1246   1.372       .  A
C1237      C1238   1.384       .  A
C1238      C1239   1.405       .  A
C1238      S1244   1.711       .  A
C1239      C1240   1.406       .  A
C1239      H1248   1.083       .  S
C1240      C1243   1.373       .  A
S1241      C1242   1.723       .  A
C1242      C1243   1.389       .  A
C1243      H1249   1.083       .  S
S1244      C1245   1.727       .  A
C1245      C1246   1.394       .  A
C1246      H1250   1.084       .  S
C1251      C1256   1.384       .  A
C1251      C1252   1.404       .  A
C1251      S1257   1.715       .  A
C1252      C1253   1.407       .  A
C1252      H1263   1.083       .  S
C1253      C1262   1.371       .  A
C1253      C1254   1.385       .  A
C1254      C1255   1.404       .  A
C1254      S1260   1.718       .  A
C1255      C1256   1.408       .  A
C1255      H1264   1.083       .  S
C1256      C1259   1.371       .  A
S1257      C1258   1.725       .  A
C1258      C1259   1.395       .  A
C1259      H1265   1.084       .  S
S1260      C1261   1.724       .  A
C1261      C1262   1.391       .  A
C1262      H1266   1.083       .  S
C1267      C1272   1.383       .  A
C1267      C1268   1.409       .  A
C1267      S1273   1.727       .  A
C1268      C1269   1.414       .  A
C1268      H1279   1.083       .  S
C1269      C1278   1.375       .  A
C1269      C1270   1.384       .  A
C1270      C1271   1.397       .  A
C1270      S1276   1.708       .  A
C1271      C1272   1.401       .  A
C1271      H1280   1.083       .  S
C1272      C1275   1.361       .  A
S1273      C1274   1.728       .  A
C1274      C1275   1.389       .  A
C1275      H1281   1.083       .  S
S1276      C1277   1.722       .  A
C1277      C1278   1.402       .  A
C1278      H1282   1.084       .  S
C1283      C1288   1.386       .  A
C1283      C1284   1.404       .  A
C1283      S1289   1.714       .  A
C1284      C1285   1.406       .  A
C1284      H1295   1.083       .  S
C1285      C1294   1.371       .  A
C1285      C1286   1.387       .  A
C1286      C1287   1.399       .  A
C1286      S1292   1.708       .  A
C1287      C1288   1.401       .  A
C1287      H1296   1.083       .  S
C1288      C1291   1.366       .  A
S1289      C1290   1.724       .  A
C1290      C1291   1.388       .  A
C1291      H1297   1.084       .  S
S1292      C1293   1.718       .  A
C1293      C1294   1.387       .  A
C1294      H1298   1.083       .  S
C1299      C1304   1.386       .  A
C1299      C1300   1.400       .  A
C1299      S1305   1.711       .  A
C1300      C1301   1.404       .  A
C1300      H1311   1.083       .  S
C1301      C1310   1.366       .  A
C1301      C1302   1.385       .  A
C1302      C1303   1.404       .  A
C1302      S1308   1.714       .  A
C1303      C1304   1.406       .  A
C1303      H1312   1.083       .  S
C1304      C1307   1.370       .  A
S1305      C1306   1.720       .  A
C1306      C1307   1.388       .  A
C1307      H1313   1.083       .  S
S1308      C1309   1.724       .  A
C1309      C1310   1.391       .  A
C1310      H1314   1.084       .  S
C1315      C1320   1.385       .  A
C1315      C1316   1.402       .  A
C1315      S1321   1.717       .  A
C1316      C1317   1.406       .  A
C1316      H1327   1.083       .  S
C1317      C1326   1.368       .  A
C1317      C1318   1.385       .  A
C1318      C1319   1.402       .  A
C1318      S1324   1.713       .  A
C1319      C1320   1.405       .  A
C1319      H1328   1.083       .  S
C1320      C1323   1.367       .  A
S1321      C1322   1.723       .  A
C1322      C1323   1.390       .  A
C1323      H1329   1.083       .  S
S1324      C1325   1.725       .  A
C1325      C1326   1.393       .  A
C1326      H1330   1.084       .  S
C1331      C1336   1.386       .  A
C1331      C1332   1.402       .  A
C1331      S1337   1.716       .  A
C1332      C1333   1.406       .  A
C1332      H1343   1.083       .  S
C1333      C1342   1.367       .  A
C1333      C1334   1.386       .  A
C1334      C1335   1.401       .  A
C1334      S1340   1.712       .  A
C1335      C1336   1.404       .  A
C1335      H1344   1.083       .  S
C1336      C1339   1.366       .  A
S1337      C1338   1.721       .  A
C1338      C1339   1.387       .  A
C1339      H1345   1.083       .  S
S1340      C1341   1.723       .  A
C1341      C1342   1.391       .  A
C1342      H1346   1.084       .  S
C1347      C1352   1.383       .  A
C1347      C1348   1.407       .  A
C1347      S1353   1.712       .  A
C1348      C1349   1.408       .  A
C1348      H1359   1.083       .  S
C1349      C1358   1.379       .  A
C1349      C1350   1.384       .  A
C1350      C1351   1.404       .  A
C1350      S1356   1.707       .  A
C1351      C1352   1.405       .  A
C1351      H1360   1.083       .  S
C1352      C1355   1.372       .  A
S1353      C1354   1.731       .  A
C1354      C1355   1.394       .  A
C1355      H1361   1.084       .  S
S1356      C1357   1.729       .  A
C1357      C1358   1.391       .  A
C1358      H1362   1.083       .  S
