geometry optimzed in LAMMPS
_audit_creation_date              2020-12-01 
_audit_creation_method            'lammps2cif' 
_symmetry_space_group_name_H-M    'P1' 
_symmetry_Int_Tables_number       1 
_symmetry_cell_setting            triclinic 
loop_ 
_symmetry_equiv_pos_as_xyz 
  x,y,z 
_cell_length_a                    29.72459015 
_cell_length_b                    29.714084269734006 
_cell_length_c                    40.63714303723339 
_cell_angle_alpha                 89.79670013614623 
_cell_angle_beta                  89.81571308142343 
_cell_angle_gamma                 90.04217423655516 
loop_ 
_atom_site_label 
_atom_site_type_symbol 
_atom_site_fract_x 
_atom_site_fract_y 
_atom_site_fract_z 
_atom_site_charge 
O1          O  0.80696932  0.91573187  0.67469454    -0.73400
O2          O  0.85644458  0.89954624  0.58353652    -0.74400
O3          O  0.80173567  0.84689747  0.62664680    -0.63000
O4          O  0.86324818  0.96897352  0.63199387    -0.71400
O5          O  0.92218455  0.93417382  0.65357908    -0.71000
O6          O  0.86320372  0.81504662  0.64664550    -0.62200
O7          O  0.91713381  0.86744169  0.60436749    -0.74700
O8          O  0.86691221  0.88177924  0.69523532    -0.73500
Cu9        Cu  0.82993824  0.90913286  0.62844230     1.04600
Cu10       Cu  0.89442384  0.87373040  0.65060239     1.04300
C11         C  0.82856907  0.90025839  0.69941051     0.92800
C12         C  0.89430155  0.87996411  0.57940539     0.91900
C13         C  0.82306046  0.81166622  0.63600848     0.84100
C14         C  0.90284623  0.97030790  0.64428308     0.90400
O15         O  0.16066948  0.20686395  0.62167592    -0.73400
O16         O  0.03767194  0.14754768  0.63088603    -0.74400
O17         O  0.09394428  0.20345031  0.67170217    -0.63000
O18         O  0.10467043  0.15309129  0.58068696    -0.71400
O19         O  0.13662330  0.09169713  0.60079208    -0.71000
O20         O  0.12706501  0.14272315  0.69216750    -0.62200
O21         O  0.07217109  0.08798658  0.65194382    -0.74700
O22         O  0.19189388  0.14478332  0.64141022    -0.73500
Cu23       Cu  0.09792242  0.17992824  0.62553079     1.04600
Cu24       Cu  0.13285144  0.11473072  0.64725074     1.04300
C25         C  0.19575433  0.18475548  0.63028810     0.92800
C26         C  0.03613699  0.10766142  0.64291574     0.91900
C27         C  0.10975679  0.18171053  0.69625635     0.84100
C28         C  0.12280938  0.11469127  0.57613249     0.90400
O29         O  0.16697697  0.24318842  0.90034932    -0.73400
O30         O  0.04386045  0.30008993  0.89059408    -0.74400
O31         O  0.10046597  0.24473086  0.84983254    -0.63000
O32         O  0.11043032  0.29646774  0.94045134    -0.71400
O33         O  0.14208890  0.35791253  0.91980109    -0.71000
O34         O  0.13291112  0.30539864  0.82862486    -0.62200
O35         O  0.07700363  0.36007890  0.86864687    -0.74700
O36         O  0.19817888  0.30473338  0.87964127    -0.73500
Cu37       Cu  0.10419738  0.26893277  0.89591166     1.04600
Cu38       Cu  0.13847554  0.33413005  0.87339359     1.04300
C39         C  0.20218677  0.26553412  0.89216173     0.92800
C40         C  0.04150921  0.33978885  0.87840523     0.91900
C41         C  0.11543836  0.26639908  0.82486466     0.84100
C42         C  0.12858996  0.33493473  0.94465927     0.90400
O43         O  0.92369567  0.50918039  0.87216602    -0.73400
O44         O  0.86506529  0.62766764  0.88475790    -0.74400
O45         O  0.92130749  0.57276273  0.92400809    -0.63000
O46         O  0.86597097  0.56363560  0.83390080    -0.71400
O47         O  0.80696662  0.52867665  0.85554402    -0.71000
O48         O  0.86109737  0.53963412  0.94504982    -0.62200
O49         O  0.80430735  0.59506556  0.90557363    -0.74700
O50         O  0.86565921  0.47350719  0.89474456    -0.73500
Cu51       Cu  0.89604034  0.56934675  0.87801151     1.04600
Cu52       Cu  0.83239402  0.53291669  0.90101391     1.04300
C53         C  0.90476393  0.47275011  0.88140980     0.92800
C54         C  0.82533896  0.63067867  0.89644189     0.91900
C55         C  0.89948895  0.55793308  0.94901066     0.84100
C56         C  0.82744782  0.54502150  0.83054366     0.90400
O57         O  0.44528968  0.29879715  0.69579536    -0.73400
O58         O  0.43418599  0.35305208  0.60505768    -0.74400
O59         O  0.37956361  0.29864100  0.64555534    -0.63000
O60         O  0.49947563  0.35523088  0.65580348    -0.71400
O61         O  0.53372402  0.29651599  0.63326389    -0.71000
O62         O  0.41112517  0.23732067  0.62491899    -0.62200
O63         O  0.46609924  0.29217761  0.58407564    -0.74700
O64         O  0.47872421  0.23911826  0.67413367    -0.73500
Cu65       Cu  0.43873561  0.32852031  0.65132066     1.04600
Cu66       Cu  0.47373700  0.26414001  0.62839608     1.04300
C67         C  0.46294481  0.25977444  0.69913003     0.92800
C68         C  0.44722754  0.33036459  0.58007588     0.91900
C69         C  0.37593746  0.25917671  0.63368204     0.84100
C70         C  0.53529158  0.33582771  0.64601349     0.90400
O71         O  0.70424623  0.62952087  0.65051121    -0.73400
O72         O  0.64698369  0.50849601  0.65757236    -0.74400
O73         O  0.70143433  0.56177869  0.69950718    -0.63000
O74         O  0.65079585  0.57657522  0.60849925    -0.71400
O75         O  0.71191478  0.54486872  0.58738206    -0.71000
O76         O  0.76201452  0.52959624  0.67808124    -0.62200
O77         O  0.70704383  0.47598380  0.63543746    -0.74700
O78         O  0.76582708  0.59830032  0.62981526    -0.73500
Cu79       Cu  0.67371092  0.57000256  0.65477516     1.04600
Cu80       Cu  0.73886071  0.53596719  0.63199507     1.04300
C81         C  0.74417454  0.63321351  0.63920319     0.92800
C82         C  0.66718507  0.47337287  0.64719204     0.91900
C83         C  0.74032866  0.54413437  0.70308473     0.84100
C84         C  0.67359335  0.56350733  0.58356337     0.90400
O85         O  0.65145072  0.93342209  0.87334631    -0.73400
O86         O  0.70822890  0.81333429  0.88226758    -0.74400
O87         O  0.65577863  0.86759979  0.92401109    -0.63000
O88         O  0.70561942  0.87995161  0.83211805    -0.71400
O89         O  0.76598968  0.91335136  0.85272041    -0.71000
O90         O  0.71723505  0.89966061  0.94356486    -0.62200
O91         O  0.77016346  0.84514170  0.90162772    -0.74700
O92         O  0.71101596  0.96778562  0.89442096    -0.73500
Cu93       Cu  0.67811426  0.87264555  0.87724540     1.04600
Cu94       Cu  0.74325743  0.90773886  0.89876307     1.04300
C95         C  0.67135116  0.96934512  0.88230346     0.92800
C96         C  0.74815381  0.80988009  0.89332183     0.91900
C97         C  0.67933977  0.88072900  0.94849792     0.84100
C98         C  0.74413793  0.89842945  0.82807271     0.90400
O99         O  0.53412410  0.14126461  0.89363862    -0.73400
O100        O  0.41358858  0.20259324  0.90472696    -0.74400
O101        O  0.46834503  0.14599076  0.94431607    -0.63000
O102        O  0.47917432  0.19874508  0.85388063    -0.71400
O103        O  0.44394413  0.13965098  0.83311452    -0.71000
O104        O  0.43500250  0.08563760  0.92415884    -0.62200
O105        O  0.37999417  0.14184178  0.88505228    -0.74700
O106        O  0.49879052  0.08266401  0.87199413    -0.73500
Cu107      Cu  0.47510977  0.17421144  0.89983516     1.04600
Cu108      Cu  0.43837709  0.11035421  0.87785616     1.04300
C109        C  0.53510579  0.10201198  0.88086293     0.92800
C110        C  0.37767698  0.18146745  0.89685098     0.91900
C111        C  0.44949970  0.10779778  0.94886416     0.84100
C112        C  0.46254914  0.17816445  0.82919594     0.90400
O113        O  0.36659543  0.45869363  0.39179760    -0.73400
O114        O  0.30844663  0.33611227  0.39995890    -0.74400
O115        O  0.36236795  0.39092159  0.44098929    -0.63000
O116        O  0.31143418  0.40464436  0.35086717    -0.71400
O117        O  0.37110630  0.37136688  0.32927787    -0.71000
O118        O  0.42358899  0.35907754  0.42051689    -0.62200
O119        O  0.36996419  0.30461563  0.37948335    -0.74700
O120        O  0.42603219  0.42500673  0.36987841    -0.73500
Cu121      Cu  0.33505933  0.39870685  0.39661490     1.04600
Cu122      Cu  0.39979826  0.36400681  0.37404663     1.04300
C123        C  0.40601626  0.46073883  0.37921784     0.92800
C124        C  0.33042382  0.30095341  0.39138255     0.91900
C125        C  0.40075479  0.37265363  0.44532555     0.84100
C126        C  0.33262972  0.39010635  0.32572040     0.90400
O127        O  0.59328314  0.69219104  0.35215235    -0.73400
O128        O  0.60379524  0.64652475  0.44401500    -0.74400
O129        O  0.65877432  0.70017609  0.40234589    -0.63000
O130        O  0.53845083  0.63668763  0.39313087    -0.71400
O131        O  0.57573585  0.57730910  0.37452262    -0.71000
O132        O  0.69241332  0.63830525  0.38467272    -0.62200
O133        O  0.63854168  0.58527769  0.42658558    -0.74700
O134        O  0.62910884  0.63212656  0.33351570    -0.73500
Cu135      Cu  0.59719088  0.67099884  0.39860540     1.04600
Cu136      Cu  0.63496914  0.60612192  0.37924825     1.04300
C137        C  0.61009943  0.67005782  0.32824150     0.92800
C138        C  0.62351399  0.60938724  0.45025113     0.91900
C139        C  0.69471983  0.67875693  0.39475808     0.84100
C140        C  0.53874926  0.59671622  0.38147576     0.90400
O141        O  0.97190435  0.64232227  0.08464838    -0.73400
O142        O  0.98203375  0.69488031  0.17474736    -0.74400
O143        O  0.04012407  0.64179030  0.13346889    -0.63000
O144        O  0.91339530  0.69314619  0.12543801    -0.71400
O145        O  0.88618889  0.63049404  0.14718550    -0.71000
O146        O  0.00979697  0.58049473  0.15562673    -0.62200
O147        O  0.95351060  0.63267704  0.19666175    -0.74700
O148        O  0.94323744  0.57971801  0.10576295    -0.73500
Cu149      Cu  0.97796740  0.67030127  0.12890277     1.04600
Cu150      Cu  0.94736006  0.60374017  0.15206347     1.04300
C151        C  0.95542645  0.60307217  0.08073731     0.92800
C152        C  0.96921571  0.67248844  0.19999143     0.91900
C153        C  0.04432477  0.60231245  0.14583922     0.84100
C154        C  0.87957906  0.66933797  0.13471152     0.90400
O155        O  0.21481208  0.38109919  0.19236092    -0.73400
O156        O  0.16100477  0.36722732  0.10200054    -0.74400
O157        O  0.21500314  0.31298545  0.14405456    -0.63000
O158        O  0.15989171  0.43465216  0.15140964    -0.71400
O159        O  0.21972943  0.46728224  0.12888431    -0.71000
O160        O  0.27639898  0.34280969  0.12214444    -0.62200
O161        O  0.22222208  0.39814512  0.08054929    -0.74700
O162        O  0.27583607  0.41184738  0.17012978    -0.73500
Cu163      Cu  0.18556140  0.37308055  0.14815467     1.04600
Cu164      Cu  0.25067873  0.40619609  0.12461199     1.04300
C165        C  0.25428420  0.39773335  0.19535734     0.92800
C166        C  0.18344224  0.38046494  0.07681568     0.91900
C167        C  0.25470746  0.30824026  0.13255322     0.84100
C168        C  0.18032203  0.47001227  0.14157297     0.90400
O169        O  0.31056075  0.09286428  0.12793164    -0.73400
O170        O  0.37239806  0.97092521  0.13505768    -0.74400
O171        O  0.31371174  0.02290918  0.17582271    -0.63000
O172        O  0.36775117  0.04035745  0.08660253    -0.71400
O173        O  0.42747697  0.07275570  0.10882593    -0.71000
O174        O  0.37195707  0.05714884  0.19866343    -0.62200
O175        O  0.42993803  0.00553626  0.15864858    -0.74700
O176        O  0.37103091  0.12513289  0.14931170    -0.73500
Cu177      Cu  0.33899436  0.03051451  0.13056743     1.04600
Cu178      Cu  0.40213872  0.06612062  0.15464078     1.04300
C179        C  0.33156638  0.12825580  0.13731543     0.92800
C180        C  0.41129560  0.96951169  0.14849775     0.91900
C181        C  0.33365860  0.03775988  0.20133435     0.84100
C182        C  0.40577145  0.05992176  0.08340887     0.90400
O183        O  0.59743082  0.73342931  0.17464234    -0.73400
O184        O  0.61238261  0.78577692  0.08457534    -0.74400
O185        O  0.66483863  0.72767452  0.12490870    -0.63000
O186        O  0.54517323  0.79271998  0.13415590    -0.71400
O187        O  0.58151377  0.85017382  0.15643186    -0.71000
O188        O  0.69937678  0.78794679  0.14465600    -0.62200
O189        O  0.64644519  0.84541676  0.10533578    -0.74700
O190        O  0.63390683  0.79167721  0.19560582    -0.73500
Cu191      Cu  0.60361722  0.75780001  0.12885919     1.04600
Cu192      Cu  0.64141220  0.82079449  0.15127312     1.04300
C193        C  0.61371039  0.75404445  0.19942291     0.92800
C194        C  0.63186013  0.82364095  0.08046129     0.91900
C195        C  0.70106677  0.74827576  0.13284426     0.84100
C196        C  0.54488613  0.83211867  0.14680540     0.90400
O197        O  0.99645365  0.85328283  0.37171085    -0.73400
O198        O  0.87642226  0.79605356  0.37955793    -0.74400
O199        O  0.92809634  0.85174963  0.42045377    -0.63000
O200        O  0.94510016  0.79637026  0.33099133    -0.71400
O201        O  0.97764632  0.73691065  0.35372312    -0.71000
O202        O  0.96031079  0.79179722  0.44270170    -0.62200
O203        O  0.90789785  0.73559633  0.40181364    -0.74700
O204        O  0.03020182  0.79462606  0.39477475    -0.73500
Cu205      Cu  0.93558802  0.82641384  0.37486297     1.04600
Cu206      Cu  0.97020156  0.76259729  0.39906055     1.04300
C207        C  0.03213868  0.83378642  0.38168317     0.92800
C208        C  0.87288674  0.75682193  0.39206316     0.91900
C209        C  0.94086740  0.82987356  0.44590078     0.84100
C210        C  0.96385013  0.75782402  0.32815556     0.90400
O211        O  0.15201370  0.06993835  0.41961858    -0.73400
O212        O  0.21002340  0.05097117  0.33145648    -0.74400
O213        O  0.15152717  0.00086947  0.37187939    -0.63000
O214        O  0.20931155  0.12004540  0.37850590    -0.71400
O215        O  0.26854023  0.08975698  0.40282344    -0.71000
O216        O  0.20910597  0.96683862  0.39602533    -0.62200
O217        O  0.26895997  0.01941388  0.35559094    -0.74700
O218        O  0.21063355  0.03723929  0.44334372    -0.73500
Cu219      Cu  0.17872288  0.06130369  0.37454608     1.04600
Cu220      Cu  0.24144321  0.02702239  0.40030880     1.04300
C221        C  0.17270332  0.05713031  0.44554578     0.92800
C222        C  0.24912908  0.03325282  0.32964075     0.91900
C223        C  0.17023048  0.96514858  0.38260016     0.84100
C224        C  0.24768787  0.12444634  0.39185704     0.90400
C225        C  0.11621052  0.91914012  0.35192238    -0.26800
C226        C  0.14471596  0.92274697  0.37920198    -0.14800
C227        C  0.14160758  0.89044430  0.40461737     0.35800
C228        C  0.10685585  0.85809120  0.40385570    -0.26200
C229        C  0.07512511  0.85832203  0.37825001    -0.15500
C230        C  0.08145735  0.88763112  0.35132310     0.36900
N231        N  0.05132900  0.88682753  0.32385228    -0.89700
H232        H  0.11897101  0.94302978  0.33178022     0.18000
H233        H  0.10258125  0.83533438  0.42452750     0.18000
N234        N  0.17133224  0.89239375  0.43222525    -0.88700
H235        H  0.07022669  0.88096728  0.30256191     0.35400
H236        H  0.03650131  0.91861374  0.32169699     0.40500
H237        H  0.18784408  0.86145077  0.43402401     0.40100
H238        H  0.15188794  0.89657944  0.45349657     0.35000
C239        C  0.24528583  0.02722380  0.26883318    -0.26800
C240        C  0.27172301  0.03014184  0.29725153    -0.14800
C241        C  0.31890351  0.03347568  0.29400992     0.35800
C242        C  0.33852113  0.03501764  0.26256162    -0.26200
C243        C  0.31195226  0.03315620  0.23407766    -0.15500
C244        C  0.26481792  0.02863986  0.23742930     0.36900
N245        N  0.23630948  0.02715956  0.20909459    -0.89700
H246        H  0.20901496  0.02459935  0.27093632     0.18000
H247        H  0.37473456  0.03830038  0.26048605     0.18000
N248        N  0.34694810  0.03722495  0.32247351    -0.88700
H249        H  0.21370119  0.05404038  0.21048672     0.35400
H250        H  0.21781323  0.99723588  0.21002362     0.40500
H251        H  0.36472634  0.06753223  0.32081458     0.40100
H252        H  0.37023093  0.01087553  0.32196990     0.35000
C253        C  0.43804698  0.89612191  0.12557523    -0.26800
C254        C  0.43672378  0.92684085  0.15176091    -0.14800
C255        C  0.46537509  0.92016788  0.17897786     0.35800
C256        C  0.49829830  0.88644793  0.17771927    -0.26200
C257        C  0.50281837  0.85857646  0.15011942    -0.15500
C258        C  0.47090794  0.86181421  0.12449220     0.36900
N259        N  0.47419790  0.83287095  0.09633710    -0.89700
H260        H  0.41568010  0.90091257  0.10485789     0.18000
H261        H  0.52199759  0.88322363  0.19781046     0.18000
N262        N  0.46207213  0.94896774  0.20726344    -0.88700
H263        H  0.44959593  0.84114232  0.07900787     0.35400
H264        H  0.46695125  0.80015578  0.10427686     0.40500
H265        H  0.48584267  0.93993244  0.22500596     0.40100
H266        H  0.43042147  0.94368913  0.21790639     0.35000
C267        C  0.33842529  0.21051139  0.12636913    -0.26800
C268        C  0.31092452  0.17355172  0.13438586    -0.14800
C269        C  0.26515022  0.18096568  0.14121280     0.35800
C270        C  0.24767667  0.22485869  0.13991478    -0.26200
C271        C  0.27507728  0.26221771  0.13206946    -0.15500
C272        C  0.32121675  0.25467446  0.12520115     0.36900
N273        N  0.35075484  0.29163336  0.11759549    -0.89700
H274        H  0.37379125  0.20491510  0.12127950     0.18000
H275        H  0.21235662  0.22960371  0.14556145     0.18000
N276        N  0.23662463  0.14428207  0.15078371    -0.88700
H277        H  0.38302677  0.27999656  0.11183590     0.35400
H278        H  0.35405055  0.31088351  0.13893505     0.40500
H279        H  0.20973067  0.14287334  0.13430806     0.40100
H280        H  0.22362137  0.15119212  0.17416928     0.35000
C281        C  0.82543056  0.72875591  0.11603724    -0.26800
C282        C  0.83254773  0.68685729  0.13137790    -0.14800
C283        C  0.79454094  0.66301233  0.14381715     0.35800
C284        C  0.75164893  0.68315008  0.14284828    -0.26200
C285        C  0.74545373  0.72611214  0.12939942    -0.15500
C286        C  0.78258875  0.74835853  0.11479576     0.36900
N287        N  0.77764698  0.79047900  0.09790078    -0.89700
H288        H  0.85347851  0.74692361  0.10525589     0.18000
H289        H  0.72304558  0.66574132  0.15354927     0.18000
N290        N  0.79937574  0.61886339  0.15797177    -0.88700
H291        H  0.76692880  0.81487251  0.11458419     0.35400
H292        H  0.75309429  0.78672685  0.07971941     0.40500
H293        H  0.80784599  0.59692207  0.13886827     0.40100
H294        H  0.76871150  0.60734237  0.16746543     0.35000
C295        C  0.96932096  0.74082406  0.23533236    -0.26800
C296        C  0.97131543  0.69369709  0.23300257    -0.14800
C297        C  0.97411755  0.66801542  0.26218998     0.35800
C298        C  0.97281460  0.68959365  0.29291034    -0.26200
C299        C  0.96864225  0.73664035  0.29523116    -0.15500
C300        C  0.96793844  0.76239259  0.26598944     0.36900
N301        N  0.96620658  0.81053423  0.26719528    -0.89700
H302        H  0.96778375  0.76121208  0.21320109     0.18000
H303        H  0.97411175  0.66920623  0.31504950     0.18000
N304        N  0.97882948  0.62008565  0.26081913    -0.88700
H305        H  0.93757646  0.82113247  0.25446360     0.35400
H306        H  0.99447696  0.82319404  0.25488561     0.40500
H307        H  0.95199681  0.60564811  0.27378346     0.40100
H308        H  0.00863620  0.61132125  0.27283788     0.35000
C309        C  0.11652534  0.57655328  0.12037681    -0.26800
C310        C  0.08850509  0.57960429  0.14822117    -0.14800
C311        C  0.09814181  0.55301288  0.17614502     0.35800
C312        C  0.13195965  0.52024407  0.17433366    -0.26200
C313        C  0.15646504  0.51343283  0.14522762    -0.15500
C314        C  0.15039318  0.54337054  0.11862650     0.36900
N315        N  0.17573708  0.53775144  0.08890802    -0.89700
H316        H  0.10946086  0.59697076  0.09885807     0.18000
H317        H  0.13718885  0.49779674  0.19505835     0.18000
N318        N  0.07154943  0.55758516  0.20557947    -0.88700
H319        H  0.19249307  0.56798576  0.08396117     0.35400
H320        H  0.15315158  0.53189317  0.06971646     0.40500
H321        H  0.07697257  0.58996584  0.21474905     0.40100
H322        H  0.08244626  0.53510602  0.22372735     0.35000
C323        C  0.77790469  0.67176249  0.39501285    -0.26800
C324        C  0.73983890  0.69983235  0.39690042    -0.14800
C325        C  0.74610943  0.74679040  0.39868068     0.35800
C326        C  0.78985447  0.76460111  0.39773650    -0.26200
C327        C  0.82769896  0.73641687  0.39504239    -0.15500
C328        C  0.82146369  0.68953807  0.39389218     0.36900
N329        N  0.85905911  0.65982284  0.39018861    -0.89700
H330        H  0.77402404  0.63555231  0.39368115     0.18000
H331        H  0.79415497  0.80079205  0.39878181     0.18000
N332        N  0.70838379  0.77664314  0.40048878    -0.88700
H333        H  0.85460518  0.64141601  0.36855283     0.35400
H334        H  0.85885947  0.63722792  0.40996735     0.40500
H335        H  0.70981972  0.79843364  0.38025191     0.40100
H336        H  0.71158078  0.79592323  0.42182957     0.35000
C337        C  0.60507637  0.73719635  0.29204300    -0.26800
C338        C  0.60885105  0.69013181  0.29475107    -0.14800
C339        C  0.61189170  0.66432815  0.26558281     0.35800
C340        C  0.61207340  0.68602544  0.23496408    -0.26200
C341        C  0.61038252  0.73315900  0.23244951    -0.15500
C342        C  0.60618812  0.75888764  0.26150154     0.36900
N343        N  0.60203549  0.80692886  0.26090993    -0.89700
H344        H  0.60232018  0.75770222  0.31396159     0.18000
H345        H  0.61486892  0.66577160  0.21291853     0.18000
N346        N  0.61432067  0.61619712  0.26601526    -0.88700
H347        H  0.57520106  0.81565273  0.24558861     0.35400
H348        H  0.63172757  0.82087785  0.25158266     0.40500
H349        H  0.58679844  0.60366120  0.27926894     0.40100
H350        H  0.64409466  0.60640244  0.27753196     0.35000
C351        C  0.31497355  0.17387767  0.39667889    -0.26800
C352        C  0.26806416  0.16999647  0.39399332    -0.14800
C353        C  0.24178385  0.20992930  0.39280368     0.35800
C354        C  0.26285612  0.25192464  0.39328786    -0.26200
C355        C  0.30976495  0.25572892  0.39440622    -0.15500
C356        C  0.33614329  0.21621673  0.39694158     0.36900
N357        N  0.38426538  0.21911210  0.39985031    -0.89700
H358        H  0.33538109  0.14372654  0.39796707     0.18000
H359        H  0.24222440  0.28191104  0.39165634     0.18000
N360        N  0.19362318  0.20937503  0.39132852    -0.88700
H361        H  0.39858222  0.18701392  0.40108360     0.35400
H362        H  0.39134639  0.23480893  0.42223415     0.40500
H363        H  0.18116920  0.19011313  0.41091238     0.40100
H364        H  0.18353808  0.19544582  0.36895892     0.35000
C365        C  0.33927772  0.38673996  0.26445356    -0.26800
C366        C  0.31236920  0.39472483  0.29236364    -0.14800
C367        C  0.26649509  0.40647596  0.28780051     0.35800
C368        C  0.24870570  0.40843755  0.25581047    -0.26200
C369        C  0.27545169  0.39934978  0.22820923    -0.15500
C370        C  0.32132177  0.38910816  0.23258813     0.36900
N371        N  0.34944368  0.37934472  0.20482102    -0.89700
H372        H  0.37447325  0.37812829  0.26727554     0.18000
H373        H  0.21348363  0.41656214  0.25239712     0.18000
N374        N  0.23770492  0.41561546  0.31548394    -0.88700
H375        H  0.36231429  0.34684417  0.20776412     0.35400
H376        H  0.37645792  0.40189912  0.20493346     0.40500
H377        H  0.23296494  0.38530736  0.32818031     0.40100
H378        H  0.20583874  0.42593053  0.30767030     0.35000
C379        C  0.46185680  0.50692386  0.34988779    -0.26800
C380        C  0.43046281  0.50376651  0.37559004    -0.14800
C381        C  0.42860658  0.53813696  0.39950361     0.35800
C382        C  0.46232276  0.57158989  0.39959994    -0.26200
C383        C  0.49696582  0.57105910  0.37605452    -0.15500
C384        C  0.49490367  0.54031793  0.34972129     0.36900
N385        N  0.52781537  0.54188647  0.32370678    -0.89700
H386        H  0.46219435  0.48159324  0.33075092     0.18000
H387        H  0.46347675  0.59587214  0.41940511     0.18000
N388        N  0.39486713  0.53707105  0.42488341    -0.88700
H389        H  0.52344967  0.57237008  0.31122571     0.35400
H390        H  0.52210431  0.51634145  0.30657408     0.40500
H391        H  0.36376959  0.54247461  0.41357522     0.40100
H392        H  0.39944692  0.56376317  0.44121947     0.35000
C393        C  0.45765803  0.11861703  0.00924504    -0.26800
C394        C  0.44316180  0.09098331  0.98325094    -0.14800
C395        C  0.42072231  0.05013527  0.99123047     0.35800
C396        C  0.41111689  0.03979271  0.02418013    -0.26200
C397        C  0.42329861  0.06892779  0.04981347    -0.15500
C398        C  0.44792863  0.10830610  0.04207714     0.36900
N399        N  0.46145874  0.13991323  0.06668896    -0.89700
H400        H  0.47537768  0.14975203  0.00413040     0.18000
H401        H  0.39275450  0.00913250  0.02970513     0.18000
N402        N  0.40639743  0.01873754  0.96673666    -0.88700
H403        H  0.48344105  0.12394911  0.08298194     0.35400
H404        H  0.43292589  0.15083569  0.07948410     0.40500
H405        H  0.43435322  0.00893465  0.95282519     0.40100
H406        H  0.38267890  0.03421264  0.95154064     0.35000
C407        C  0.67211815  0.87530827  0.04225266    -0.26800
C408        C  0.63948725  0.84160709  0.04673336    -0.14800
C409        C  0.61672158  0.82487598  0.01868418     0.35800
C410        C  0.62890123  0.84008154  0.98732547    -0.26200
C411        C  0.66381136  0.87136832  0.98267117    -0.15500
C412        C  0.68468762  0.89013729  0.01086767     0.36900
N413        N  0.71883717  0.92410016  0.00878959    -0.89700
H414        H  0.68948974  0.88926672  0.06329225     0.18000
H415        H  0.61184511  0.82571946  0.96629928     0.18000
N416        N  0.58111205  0.79247678  0.02091007    -0.88700
H417        H  0.70659971  0.95113695  0.99485127     0.35400
H418        H  0.74743649  0.91068297  0.99761768     0.40500
H419        H  0.55640475  0.80460143  0.03695612     0.40100
H420        H  0.59398139  0.76208665  0.02978210     0.35000
C421        C  0.61883792  0.01661152  0.85083207    -0.26800
C422        C  0.64646376  0.01198712  0.87855416    -0.14800
C423        C  0.64298757  0.04349475  0.90424207     0.35800
C424        C  0.60874154  0.07618248  0.90329040    -0.34200
C425        C  0.57782439  0.07719213  0.87720245    -0.15500
C426        C  0.58455897  0.04887353  0.84985740     0.36900
N427        N  0.55515948  0.05162015  0.82187910    -0.89700
H428        H  0.62223009  0.99301900  0.83068394     0.18000
H429        H  0.60404782  0.09818904  0.92422975     0.18000
N430        N  0.67162389  0.04017421  0.93240847    -0.88700
H431        H  0.56436574  0.02807349  0.80402597     0.35400
H432        H  0.55956071  0.08340491  0.81121736     0.40500
H433        H  0.65134330  0.03542233  0.95320394     0.40100
H434        H  0.68844798  0.07086474  0.93500395     0.35000
C435        C  0.63196036  0.61131242  0.54396795    -0.26800
C436        C  0.65645270  0.57192490  0.55000587    -0.14800
C437        C  0.66621651  0.54281609  0.52367637     0.35800
C438        C  0.65345024  0.55469562  0.49158230    -0.26200
C439        C  0.63086100  0.59535267  0.48508120    -0.15500
C440        C  0.61886397  0.62339560  0.51195732     0.36900
N441        N  0.59456696  0.66465538  0.50682738    -0.89700
H442        H  0.62419345  0.63361104  0.56425234     0.18000
H443        H  0.66228085  0.53231030  0.47159507     0.18000
N444        N  0.68887818  0.50100717  0.52943590    -0.88700
H445        H  0.59078638  0.68227131  0.52889750     0.35400
H446        H  0.56211725  0.65604863  0.49923770     0.40500
H447        H  0.71830306  0.50073400  0.51527758     0.40100
H448        H  0.66811470  0.47498876  0.52118316     0.35000
C449        C  0.46454601  0.32875735  0.52009532    -0.26800
C450        C  0.43894483  0.34676164  0.54605937    -0.14800
C451        C  0.40339930  0.37665615  0.53864292     0.35800
C452        C  0.39343963  0.38639112  0.50559081    -0.26200
C453        C  0.41735002  0.36626738  0.47955990    -0.15500
C454        C  0.45410098  0.33806534  0.48711492     0.36900
N455        N  0.48009735  0.31747276  0.46154345    -0.89700
H456        H  0.49219282  0.30610669  0.52533787     0.18000
H457        H  0.36546875  0.40854290  0.50021273     0.18000
N458        N  0.37609902  0.39545659  0.56443978    -0.88700
H459        H  0.47817301  0.28256048  0.46454938     0.35400
H460        H  0.51367266  0.32711813  0.46451935     0.40500
H461        H  0.35790021  0.36905049  0.57517984     0.40100
H462        H  0.35230807  0.41774300  0.55479529     0.35000
C463        C  0.46785605  0.26522932  0.76011491    -0.26800
C464        C  0.46433992  0.23810996  0.73207617    -0.14800
C465        C  0.46066135  0.19089406  0.73601323     0.35800
C466        C  0.46073031  0.17207918  0.76787268    -0.26200
C467        C  0.46426394  0.19928465  0.79596107    -0.15500
C468        C  0.46798457  0.24639232  0.79182591     0.36900
N469        N  0.47071125  0.27554496  0.81974565    -0.89700
H470        H  0.47051188  0.30144355  0.75745371     0.18000
H471        H  0.45771855  0.13593740  0.77076079     0.18000
N472        N  0.45569935  0.16226984  0.70778649    -0.88700
H473        H  0.44365091  0.29797037  0.81879154     0.35400
H474        H  0.50045110  0.29419407  0.81779343     0.40500
H475        H  0.42487110  0.16999721  0.69682569     0.40100
H476        H  0.45389124  0.12846542  0.71493226     0.35000
C477        C  0.60462572  0.36842435  0.62083621    -0.26800
C478        C  0.57782694  0.36107007  0.64886482    -0.14800
C479        C  0.58649654  0.38566750  0.67768856     0.35800
C480        C  0.61879761  0.41988368  0.67731842    -0.26200
C481        C  0.64286388  0.43011475  0.64856492    -0.15500
C482        C  0.63717124  0.40305591  0.62034253     0.36900
N483        N  0.66127711  0.41344460  0.59054609    -0.89700
H484        H  0.59760078  0.34978915  0.59855860     0.18000
H485        H  0.62334063  0.44023556  0.69915384     0.18000
N486        N  0.56096542  0.37721843  0.70703862    -0.88700
H487        H  0.65146473  0.39187083  0.57160889     0.35400
H488        H  0.69532777  0.40699077  0.59483561     0.40500
H489        H  0.54455479  0.40698845  0.71361401     0.40100
H490        H  0.58345176  0.36896181  0.72584500     0.35000
C491        C  0.83255270  0.71404293  0.89479671    -0.26800
C492        C  0.80444165  0.67613141  0.89837076    -0.14800
C493        C  0.75749892  0.68276727  0.90145706     0.35800
C494        C  0.74012122  0.72685642  0.90058044    -0.26200
C495        C  0.76838719  0.76446340  0.89628434    -0.15500
C496        C  0.81504067  0.75774527  0.89345068     0.36900
N497        N  0.84473857  0.79498631  0.88779689    -0.89700
H498        H  0.86860831  0.70988300  0.89227524     0.18000
H499        H  0.70412391  0.73182447  0.90275451     0.18000
N500        N  0.72747381  0.64502675  0.90460217    -0.88700
H501        H  0.86168857  0.78956458  0.86556989     0.35400
H502        H  0.86856039  0.79539890  0.90666063     0.40500
H503        H  0.72848011  0.62736598  0.88240364     0.40100
H504        H  0.69427000  0.65593887  0.90756105     0.35000
C505        C  0.95332683  0.59454441  0.98741702    -0.26800
C506        C  0.91793601  0.56380810  0.98277589    -0.14800
C507        C  0.89988272  0.54135301  0.01079609     0.35800
C508        C  0.91515370  0.55242493  0.04223273    -0.26200
C509        C  0.94764442  0.58599355  0.04694077    -0.15500
C510        C  0.96847529  0.60579541  0.01908255     0.36900
N511        N  0.00432435  0.63785347  0.02296095    -0.89700
H512        H  0.96832159  0.61120203  0.96631199     0.18000
H513        H  0.89946484  0.53623124  0.06327856     0.18000
N514        N  0.86560510  0.50760011  0.00851933    -0.88700
H515        H  0.01550007  0.64963626  0.00007503     0.35400
H516        H  0.03146056  0.62092167  0.03364191     0.40500
H517        H  0.87642413  0.48249841  0.99236829     0.40100
H518        H  0.83600195  0.52227160  0.99981280     0.35000
C519        C  0.75849664  0.54124807  0.79590892    -0.26800
C520        C  0.80571553  0.54310440  0.79773722    -0.14800
C521        C  0.83111515  0.54398668  0.76831384     0.35800
C522        C  0.80880660  0.54337461  0.73790517    -0.26200
C523        C  0.76163385  0.54216244  0.73603388    -0.15500
C524        C  0.73615930  0.54091282  0.76543210     0.36900
N525        N  0.68784002  0.53919312  0.76432921    -0.89700
H526        H  0.73881535  0.54074719  0.81839875     0.18000
H527        H  0.82850929  0.54466625  0.71544145     0.18000
N528        N  0.87944517  0.54535425  0.76930092    -0.88700
H529        H  0.67426427  0.53910697  0.78809046     0.35400
H530        H  0.67878807  0.50853198  0.75364719     0.40500
H531        H  0.89292403  0.54678542  0.74550722     0.40100
H532        H  0.89042877  0.51506864  0.77962912     0.35000
C533        C  0.32971792  0.24960396  0.89296369    -0.26800
C534        C  0.33318657  0.20350416  0.89991692    -0.14800
C535        C  0.29361120  0.17910211  0.90782457     0.35800
C536        C  0.25167898  0.20035953  0.90620201    -0.26200
C537        C  0.24778755  0.24571569  0.89676059    -0.15500
C538        C  0.28764056  0.27090092  0.89133327     0.36900
N539        N  0.28583341  0.31804749  0.88396089    -0.89700
H540        H  0.35975174  0.26901597  0.88754449     0.18000
H541        H  0.22182389  0.18071029  0.91161503     0.18000
N542        N  0.29481909  0.13296803  0.91818636    -0.88700
H543        H  0.30156556  0.32339192  0.86123119     0.35400
H544        H  0.30423249  0.33517022  0.90189220     0.40500
H545        H  0.31708919  0.13002660  0.93796074     0.40100
H546        H  0.30615143  0.11304785  0.89876398     0.35000
C547        C  0.17075408  0.38355760  0.98354823    -0.26800
C548        C  0.13676345  0.35153515  0.97858768    -0.14800
C549        C  0.11443701  0.33299949  0.00633069     0.35800
C550        C  0.12909308  0.34425665  0.03817999    -0.26200
C551        C  0.16531179  0.37391232  0.04304280    -0.15500
C552        C  0.18515354  0.39487017  0.01527028     0.36900
N553        N  0.22044787  0.42730397  0.01895564    -0.89700
H554        H  0.18780806  0.39866334  0.96264233     0.18000
H555        H  0.11295336  0.32863589  0.05925715     0.18000
N556        N  0.07746945  0.30232546  0.00216075    -0.88700
H557        H  0.21007859  0.45737445  0.00791391     0.35400
H558        H  0.24875686  0.41565939  0.00624073     0.40500
H559        H  0.05134055  0.32013204  0.99093913     0.40100
H560        H  0.06520629  0.29138906  0.02498905     0.35000
C561        C  0.93523892  0.40075926  0.90395818    -0.26800
C562        C  0.93019977  0.43038695  0.87723246    -0.14800
C563        C  0.95635576  0.42382945  0.84859323     0.35800
C564        C  0.99026599  0.39100907  0.84853879    -0.26200
C565        C  0.99831960  0.36428404  0.87639901    -0.15500
C566        C  0.96935931  0.36787098  0.90381288     0.36900
N567        N  0.97692220  0.34093528  0.93255315    -0.89700
H568        H  0.91535030  0.40561828  0.92605844     0.18000
H569        H  0.01213381  0.38787493  0.82727156     0.18000
N570        N  0.94965979  0.45206223  0.82021814    -0.88700
H571        H  0.94738255  0.32309341  0.93766160     0.35400
H572        H  0.98311382  0.36251292  0.95230722     0.40500
H573        H  0.91726502  0.44570303  0.81142920     0.40100
H574        H  0.97194922  0.44332083  0.80133797     0.35000
C575        C  0.27902376  0.17580634  0.62957773    -0.26800
C576        C  0.24153317  0.20471260  0.62822494    -0.14800
C577        C  0.24886824  0.25157883  0.62726350     0.35800
C578        C  0.29298544  0.26844183  0.62825757    -0.26200
C579        C  0.33033659  0.23947548  0.63035833    -0.15500
C580        C  0.32305148  0.19266995  0.63082287     0.36900
N581        N  0.36001350  0.16206364  0.63392948    -0.89700
H582        H  0.27425795  0.13966065  0.63038043     0.18000
H583        H  0.29792292  0.30458289  0.62783645     0.18000
N584        N  0.21178607  0.28230896  0.62645771    -0.88700
H585        H  0.35941001  0.14026073  0.61380326     0.35400
H586        H  0.35510505  0.14290854  0.65528261     0.40500
H587        H  0.21526754  0.30263324  0.60555011     0.40100
H588        H  0.21381344  0.30298211  0.64717472     0.35000
C589        C  0.12797678  0.10648212  0.48247705    -0.26800
C590        C  0.15413441  0.06761626  0.47844051    -0.14800
C591        C  0.16559552  0.04187488  0.50636805     0.35800
C592        C  0.15325609  0.05681233  0.53779530    -0.26200
C593        C  0.12966733  0.09736301  0.54216202    -0.15500
C594        C  0.11580097  0.12167281  0.51392705     0.36900
N595        N  0.09033820  0.16238186  0.51686772    -0.89700
H596        H  0.11866692  0.12649916  0.46121504     0.18000
H597        H  0.16353220  0.03704132  0.55891871     0.18000
N598        N  0.19004174  0.00060429  0.50299506    -0.88700
H599        H  0.06024706  0.15829578  0.50395893     0.35400
H600        H  0.10856234  0.18834970  0.50560383     0.40500
H601        H  0.17075536  0.97476624  0.51341580     0.40100
H602        H  0.21982064  0.00334759  0.51647741     0.35000
C603        C  0.10909799  0.19841271  0.78917038    -0.26800
C604        C  0.11302190  0.24548210  0.79165859    -0.14800
C605        C  0.11481719  0.27130882  0.76243418     0.35800
C606        C  0.11265791  0.24987731  0.73171113    -0.26200
C607        C  0.10947927  0.20281618  0.72930560    -0.15500
C608        C  0.10764264  0.17697879  0.75842687     0.36900
N609        N  0.10361296  0.12898989  0.75697153    -0.89700
H610        H  0.10774057  0.17787327  0.81123717     0.18000
H611        H  0.11440790  0.27025806  0.70956923     0.18000
N612        N  0.11836748  0.31934389  0.76369016    -0.88700
H613        H  0.07425303  0.11964669  0.76948944     0.35400
H614        H  0.13098157  0.11494406  0.76941047     0.40500
H615        H  0.09071169  0.33305022  0.75139114     0.40100
H616        H  0.14747614  0.32888071  0.75092991     0.35000
C617        C  0.82977663  0.72820717  0.63857036    -0.26800
C618        C  0.80201012  0.76630718  0.63511288    -0.14800
C619        C  0.75511058  0.76003201  0.63244861     0.35800
C620        C  0.73709671  0.71635326  0.63349523    -0.26200
C621        C  0.76493770  0.67844017  0.63709359    -0.15500
C622        C  0.81175594  0.68463203  0.63966644     0.36900
N623        N  0.84109476  0.64698039  0.64455795    -0.89700
H624        H  0.86588473  0.73208852  0.64082498     0.18000
H625        H  0.70098149  0.71215493  0.63155245     0.18000
N626        N  0.72542942  0.79775541  0.62946592    -0.88700
H627        H  0.85834866  0.65172988  0.66666354     0.35400
H628        H  0.86471649  0.64678178  0.62544172     0.40500
H629        H  0.70282178  0.79684373  0.64922539     0.40100
H630        H  0.70704490  0.79405750  0.60774934     0.35000
C631        C  0.88919162  0.89188914  0.51874954    -0.26800
C632        C  0.91059091  0.87055653  0.54543084    -0.14800
C633        C  0.94468801  0.83844756  0.53864491     0.35800
C634        C  0.95502579  0.82752273  0.50609717    -0.26200
C635        C  0.93224558  0.84733954  0.47953935    -0.15500
C636        C  0.89959681  0.88062875  0.48606430     0.36900
N637        N  0.87565029  0.90200917  0.45978013    -0.89700
H638        H  0.86327037  0.91679063  0.52316965     0.18000
H639        H  0.98053585  0.80219663  0.50166678     0.18000
N640        N  0.96848534  0.81488825  0.56399512    -0.88700
H641        H  0.88084877  0.93672440  0.46151946     0.35400
H642        H  0.84131031  0.89576502  0.46311907     0.40500
H643        H  0.94542378  0.79709199  0.57852775     0.40100
H644        H  0.98591944  0.83817441  0.57835048     0.35000
C645        C  0.76079797  0.90564546  0.73531028    -0.26800
C646        C  0.80792650  0.90217349  0.73272518    -0.14800
C647        C  0.83361785  0.89922384  0.76198233     0.35800
C648        C  0.81191340  0.89935104  0.79249944    -0.26200
C649        C  0.76486367  0.90135839  0.79498880    -0.15500
C650        C  0.73898138  0.90514186  0.76608226     0.36900
N651        N  0.69080945  0.90874473  0.76801895    -0.89700
H652        H  0.74068818  0.90794698  0.71318090     0.18000
H653        H  0.83217334  0.89651783  0.81454458     0.18000
N654        N  0.88173216  0.89636441  0.76179579    -0.88700
H655        H  0.67682949  0.91090271  0.74449613     0.35400
H656        H  0.68327743  0.93903292  0.77985641     0.40500
H657        H  0.89473272  0.92350022  0.74835684     0.40100
H658        H  0.89141116  0.86612105  0.75082534     0.35000
C659        C  0.92772728  0.04563474  0.62254901    -0.26800
C660        C  0.92812487  0.01301224  0.64770614    -0.14800
C661        C  0.95821072  0.01817365  0.67415642     0.35800
C662        C  0.99036197  0.05243806  0.67334300    -0.26200
C663        C  0.99354844  0.08207846  0.64650641    -0.15500
C664        C  0.96029672  0.08010201  0.62164339     0.36900
N665        N  0.96057569  0.11048842  0.59422277    -0.89700
H666        H  0.90436920  0.04237485  0.60227850     0.18000
H667        H  0.01481068  0.05416158  0.69304903     0.18000
N668        N  0.95731197  0.98748343  0.70145137    -0.88700
H669        H  0.99139994  0.10756223  0.58196742     0.35400
H670        H  0.95755544  0.14326811  0.60322410     0.40500
H671        H  0.95216892  0.00606296  0.72293347     0.40100
H672        H  0.98881990  0.97200847  0.70307293     0.35000
loop_ 
_geom_bond_atom_site_label_1 
_geom_bond_atom_site_label_2 
_geom_bond_distance 
_geom_bond_site_symmetry_2 
_ccdc_geom_bond_type 
O1           Cu9   2.008       .  S
O1           C11   1.278       .  A
O2           Cu9   2.007       .  S
O2           C12   1.278       .  A
O3           Cu9   2.031       .  S
O3           C13   1.281       .  A
O4           Cu9   2.040       .  S
O4           C14   1.281       .  A
O5          Cu10   1.980       .  S
O5           C14   1.275       .  A
O6          Cu10   1.982       .  S
O6           C13   1.274       .  A
O7          Cu10   2.004       .  S
O7           C12   1.277       .  A
O8          Cu10   2.002       .  S
O8           C11   1.277       .  A
Cu9         Cu10   2.366       .  S
C11         C646   1.486       .  S
C12         C632   1.489       .  S
C13         C618   1.486       .  S
C14         C660   1.481   1_565  S
O15         Cu23   2.034       .  S
O15          C25   1.282       .  A
O16         Cu23   2.043       .  S
O16          C26   1.281       .  A
O17         Cu23   2.008       .  S
O17          C27   1.278       .  A
O18         Cu23   2.001       .  S
O18          C28   1.276       .  A
O19         Cu24   2.013       .  S
O19          C28   1.280       .  A
O20         Cu24   2.015       .  S
O20          C27   1.279       .  A
O21         Cu24   1.979       .  S
O21          C26   1.275       .  A
O22         Cu24   1.982       .  S
O22          C25   1.274       .  A
Cu23        Cu24   2.368       .  S
C25         C576   1.486       .  S
C26         C663   1.483   1_455  S
C27         C607   1.484       .  S
C28         C593   1.489       .  S
O29         Cu37   2.026       .  S
O29          C39   1.281       .  A
O30         Cu37   2.031       .  S
O30          C40   1.280       .  A
O31         Cu37   2.012       .  S
O31          C41   1.278       .  A
O32         Cu37   1.998       .  S
O32          C42   1.276       .  A
O33         Cu38   2.019       .  S
O33          C42   1.281       .  A
O34         Cu38   2.020       .  S
O34          C41   1.279       .  A
O35         Cu38   1.993       .  S
O35          C40   1.276       .  A
O36         Cu38   1.995       .  S
O36          C39   1.275       .  A
Cu37        Cu38   2.368       .  S
C39         C537   1.490       .  S
C40         C565   1.479   1_455  S
C41         C604   1.490       .  S
C42         C548   1.487       .  S
O43         Cu51   1.983       .  S
O43          C53   1.275       .  A
O44         Cu51   1.982       .  S
O44          C54   1.275       .  A
O45         Cu51   2.020       .  S
O45          C55   1.280       .  A
O46         Cu51   2.013       .  S
O46          C56   1.279       .  A
O47         Cu52   2.003       .  S
O47          C56   1.277       .  A
O48         Cu52   1.996       .  S
O48          C55   1.275       .  A
O49         Cu52   2.036       .  S
O49          C54   1.282       .  A
O50         Cu52   2.040       .  S
O50          C53   1.281       .  A
Cu51        Cu52   2.367       .  S
C53         C562   1.479       .  S
C54         C492   1.489       .  S
C55         C506   1.490       .  S
C56         C520   1.485       .  S
O57         Cu65   2.019       .  S
O57          C67   1.280       .  A
O58         Cu65   2.019       .  S
O58          C68   1.280       .  A
O59         Cu65   1.985       .  S
O59          C69   1.274       .  A
O60         Cu65   1.981       .  S
O60          C70   1.274       .  A
O61         Cu66   2.036       .  S
O61          C70   1.280       .  A
O62         Cu66   2.030       .  S
O62          C69   1.282       .  A
O63         Cu66   1.995       .  S
O63          C68   1.276       .  A
O64         Cu66   2.005       .  S
O64          C67   1.277       .  A
Cu65        Cu66   2.370       .  S
C67         C464   1.484       .  S
C68         C450   1.485       .  S
C69         C579   1.483       .  S
C70         C478   1.475       .  S
O71         Cu79   1.994       .  S
O71          C81   1.276       .  A
O72         Cu79   1.995       .  S
O72          C82   1.277       .  A
O73         Cu79   2.012       .  S
O73          C83   1.278       .  A
O74         Cu79   2.011       .  S
O74          C84   1.279       .  A
O75         Cu80   2.001       .  S
O75          C84   1.277       .  A
O76         Cu80   2.006       .  S
O76          C83   1.278       .  A
O77         Cu80   2.021       .  S
O77          C82   1.278       .  A
O78         Cu80   2.019       .  S
O78          C81   1.280       .  A
Cu79        Cu80   2.372       .  S
C81         C621   1.480       .  S
C82         C481   1.475       .  S
C83         C523   1.484       .  S
C84         C436   1.478       .  S
O85         Cu93   1.979       .  S
O85          C95   1.275       .  A
O86         Cu93   1.987       .  S
O86          C96   1.274       .  A
O87         Cu93   2.016       .  S
O87          C97   1.281       .  A
O88         Cu93   2.016       .  S
O88          C98   1.279       .  A
O89         Cu94   1.994       .  S
O89          C98   1.276       .  A
O90         Cu94   1.990       .  S
O90          C97   1.274       .  A
O91         Cu94   2.028       .  S
O91          C96   1.282       .  A
O92         Cu94   2.033       .  S
O92          C95   1.280       .  A
Cu93        Cu94   2.370       .  S
C95         C422   1.475   1_565  S
C96         C495   1.483       .  S
C97         C411   1.487       .  S
C98         C649   1.479       .  S
O99        Cu107   2.025       .  S
O99         C109   1.279       .  A
O100       Cu107   2.024       .  S
O100        C110   1.280       .  A
O101       Cu107   1.999       .  S
O101        C111   1.278       .  A
O102       Cu107   2.006       .  S
O102        C112   1.277       .  A
O103       Cu108   2.019       .  S
O103        C112   1.280       .  A
O104       Cu108   2.020       .  S
O104        C111   1.278       .  A
O105       Cu108   1.993       .  S
O105        C110   1.275       .  A
O106       Cu108   1.990       .  S
O106        C109   1.276       .  A
Cu107      Cu108   2.368       .  S
C109        C425   1.476       .  S
C110        C534   1.481       .  S
C111        C394   1.494       .  S
C112        C467   1.488       .  S
O113       Cu121   2.022       .  S
O113        C123   1.278       .  A
O114       Cu121   2.025       .  S
O114        C124   1.281       .  A
O115       Cu121   1.993       .  S
O115        C125   1.276       .  A
O116       Cu121   1.997       .  S
O116        C126   1.276       .  A
O117       Cu122   2.023       .  S
O117        C126   1.281       .  A
O118       Cu122   2.023       .  S
O118        C125   1.280       .  A
O119       Cu122   1.986       .  S
O119        C124   1.274       .  A
O120       Cu122   1.979       .  S
O120        C123   1.276       .  A
Cu121      Cu122   2.368       .  S
C123        C380   1.477       .  S
C124        C355   1.482       .  S
C125        C453   1.489       .  S
C126        C366   1.491       .  S
O127       Cu135   1.992       .  S
O127        C137   1.276       .  A
O128       Cu135   1.991       .  S
O128        C138   1.275       .  A
O129       Cu135   2.031       .  S
O129        C139   1.281       .  A
O130       Cu135   2.034       .  S
O130        C140   1.280       .  A
O131       Cu136   1.967       .  S
O131        C140   1.273       .  A
O132       Cu136   1.970       .  S
O132        C139   1.273       .  A
O133       Cu136   2.022       .  S
O133        C138   1.281       .  A
O134       Cu136   2.018       .  S
O134        C137   1.279       .  A
Cu135      Cu136   2.367       .  S
C137        C338   1.485       .  S
C138        C439   1.491       .  S
C139        C324   1.483       .  S
C140        C383   1.474       .  S
O141       Cu149   1.993       .  S
O141        C151   1.275       .  A
O142       Cu149   2.007       .  S
O142        C152   1.278       .  A
O143       Cu149   2.042   1_455  S
O143        C153   1.281       .  A
O144       Cu149   2.041       .  S
O144        C154   1.284       .  A
O145       Cu150   1.995       .  S
O145        C154   1.275       .  A
O146       Cu150   1.986   1_455  S
O146        C153   1.275       .  A
O147       Cu150   2.017       .  S
O147        C152   1.279       .  A
O148       Cu150   2.019       .  S
O148        C151   1.280       .  A
Cu149      Cu150   2.367       .  S
C151        C509   1.485       .  S
C152        C296   1.486       .  S
C153        C310   1.480       .  S
C154        C282   1.499       .  S
O155       Cu163   2.013       .  S
O155        C165   1.279       .  A
O156       Cu163   2.023       .  S
O156        C166   1.280       .  A
O157       Cu163   1.996       .  S
O157        C167   1.276       .  A
O158       Cu163   1.987       .  S
O158        C168   1.276       .  A
O159       Cu164   2.043       .  S
O159        C168   1.281       .  A
O160       Cu164   2.036       .  S
O160        C167   1.282       .  A
O161       Cu164   1.998       .  S
O161        C166   1.276       .  A
O162       Cu164   2.005       .  S
O162        C165   1.277       .  A
Cu163      Cu164   2.368       .  S
C165        C369   1.479       .  S
C166        C551   1.489       .  S
C167        C271   1.496       .  S
C168        C313   1.480       .  S
O169       Cu177   2.040       .  S
O169        C179   1.282       .  A
O170       Cu177   2.039   1_565  S
O170        C180   1.281       .  A
O171       Cu177   1.996       .  S
O171        C181   1.276       .  A
O172       Cu177   1.999       .  S
O172        C182   1.277       .  A
O173       Cu178   2.015       .  S
O173        C182   1.279       .  A
O174       Cu178   2.015       .  S
O174        C181   1.280       .  A
O175       Cu178   1.988       .  S
O175        C180   1.275   1_545  A
O176       Cu178   1.994       .  S
O176        C179   1.275       .  A
Cu177      Cu178   2.370       .  S
C179        C268   1.484       .  S
C180        C254   1.482       .  S
C181        C243   1.483       .  S
C182        C397   1.483       .  S
O183       Cu191   2.002       .  S
O183        C193   1.277       .  A
O184       Cu191   1.996       .  S
O184        C194   1.275       .  A
O185       Cu191   2.035       .  S
O185        C195   1.281       .  A
O186       Cu191   2.035       .  S
O186        C196   1.280       .  A
O187       Cu192   1.994       .  S
O187        C196   1.277       .  A
O188       Cu192   1.999       .  S
O188        C195   1.275       .  A
O189       Cu192   2.008       .  S
O189        C194   1.279       .  A
O190       Cu192   2.007       .  S
O190        C193   1.278       .  A
Cu191      Cu192   2.369       .  S
C193        C341   1.480       .  S
C194        C408   1.486       .  S
C195        C285   1.481       .  S
C196        C257   1.484       .  S
O197       Cu205   1.981       .  S
O197        C207   1.276   1_655  A
O198       Cu205   1.984       .  S
O198        C208   1.274       .  A
O199       Cu205   2.014       .  S
O199        C209   1.278       .  A
O200       Cu205   2.016       .  S
O200        C210   1.280       .  A
O201       Cu206   2.008       .  S
O201        C210   1.278       .  A
O202       Cu206   1.998       .  S
O202        C209   1.278       .  A
O203       Cu206   2.020       .  S
O203        C208   1.280       .  A
O204       Cu206   2.028   1_455  S
O204        C207   1.279       .  A
Cu205      Cu206   2.370       .  S
C207        C229   1.477       .  S
C208        C327   1.478       .  S
C209        C635   1.485       .  S
C210        C299   1.487       .  S
O211       Cu219   2.011       .  S
O211        C221   1.279       .  A
O212       Cu219   2.005       .  S
O212        C222   1.278       .  A
O213       Cu219   1.972       .  S
O213        C223   1.275   1_545  A
O214       Cu219   1.975       .  S
O214        C224   1.272       .  A
O215       Cu220   2.033       .  S
O215        C224   1.282       .  A
O216       Cu220   2.038   1_565  S
O216        C223   1.280       .  A
O217       Cu220   2.004       .  S
O217        C222   1.277       .  A
O218       Cu220   1.996       .  S
O218        C221   1.276       .  A
Cu219      Cu220   2.370       .  S
C221        C590   1.479       .  S
C222        C240   1.479       .  S
C223        C226   1.477       .  S
C224        C352   1.485       .  S
C225        C226   1.402       .  A
C225        C230   1.394       .  A
C225        H232   1.084       .  S
C226        C227   1.410       .  A
C227        C228   1.411       .  A
C227        N234   1.432       .  S
C228        C229   1.407       .  A
C228        H233   1.084       .  S
C229        C230   1.408       .  A
C230        N231   1.434       .  S
N231        H235   1.045       .  S
N231        H236   1.046       .  S
N234        H237   1.045       .  S
N234        H238   1.046       .  S
C239        C240   1.402       .  A
C239        C244   1.401       .  A
C239        H246   1.084       .  S
C240        C241   1.412       .  A
C241        C242   1.404       .  A
C241        N248   1.433       .  S
C242        C243   1.405       .  A
C242        H247   1.084       .  S
C243        C244   1.413       .  A
C244        N245   1.433       .  S
N245        H249   1.046       .  S
N245        H250   1.046   1_545  S
N248        H251   1.046       .  S
N248        H252   1.046       .  S
C253        C254   1.405       .  A
C253        C258   1.413       .  A
C253        H260   1.083       .  S
C254        C255   1.412       .  A
C255        C256   1.402       .  A
C255        N262   1.439       .  S
C256        C257   1.403       .  A
C256        H261   1.084       .  S
C257        C258   1.414       .  A
C258        N259   1.437       .  S
N259        H263   1.046       .  S
N259        H264   1.045       .  S
N262        H265   1.046       .  S
N262        H266   1.046       .  S
C267        C268   1.405       .  A
C267        C272   1.409       .  A
C267        H274   1.084       .  S
C268        C269   1.405       .  A
C269        C270   1.405       .  A
C269        N276   1.432       .  S
C270        C271   1.411       .  A
C270        H275   1.083       .  S
C271        C272   1.417       .  A
C272        N273   1.438       .  S
N273        H277   1.046       .  S
N273        H278   1.045       .  S
N276        H279   1.045       .  S
N276        H280   1.046       .  S
C281        C282   1.407       .  A
C281        C286   1.402       .  A
C281        H288   1.083       .  S
C282        C283   1.424       .  A
C283        C284   1.409       .  A
C283        N290   1.438       .  S
C284        C285   1.399       .  A
C284        H289   1.084       .  S
C285        C286   1.414       .  A
C286        N287   1.433       .  S
N287        H291   1.044       .  S
N287        H292   1.046       .  S
N290        H293   1.046       .  S
N290        H294   1.046       .  S
C295        C296   1.405       .  A
C295        C300   1.404       .  A
C295        H302   1.084       .  S
C296        C297   1.411       .  A
C297        C298   1.406       .  A
C297        N304   1.432       .  S
C298        C299   1.407       .  A
C298        H303   1.084       .  S
C299        C300   1.411       .  A
C300        N301   1.432       .  S
N301        H305   1.046       .  S
N301        H306   1.046       .  S
N304        H307   1.045       .  S
N304        H308   1.046   1_655  S
C309        C310   1.406       .  A
C309        C314   1.411       .  A
C309        H316   1.084       .  S
C310        C311   1.411       .  A
C311        C312   1.402       .  A
C311        N318   1.438       .  S
C312        C313   1.402       .  A
C312        H317   1.084       .  S
C313        C314   1.410       .  A
C314        N315   1.432       .  S
N315        H319   1.045       .  S
N315        H320   1.046       .  S
N318        H321   1.046       .  S
N318        H322   1.046       .  S
C323        C324   1.408       .  A
C323        C328   1.399       .  A
C323        H330   1.084       .  S
C324        C325   1.410       .  A
C325        C326   1.404       .  A
C325        N332   1.432       .  S
C326        C327   1.407       .  A
C326        H331   1.084       .  S
C327        C328   1.406       .  A
C328        N329   1.433       .  S
N329        H333   1.046       .  S
N329        H334   1.045       .  S
N332        H335   1.046       .  S
N332        H336   1.046       .  S
C337        C338   1.407       .  A
C337        C342   1.397       .  A
C337        H344   1.084       .  S
C338        C339   1.417       .  A
C339        C340   1.399       .  A
C339        N346   1.432       .  S
C340        C341   1.405       .  A
C340        H345   1.084       .  S
C341        C342   1.414       .  A
C342        N343   1.433       .  S
N343        H347   1.046       .  S
N343        H348   1.044       .  S
N346        H349   1.046       .  S
N346        H350   1.044       .  S
C351        C352   1.404       .  A
C351        C356   1.406       .  A
C351        H358   1.084       .  S
C352        C353   1.422       .  A
C353        C354   1.396       .  A
C353        N360   1.433       .  S
C354        C355   1.400       .  A
C354        H359   1.084       .  S
C355        C356   1.416       .  A
C356        N357   1.438       .  S
N357        H361   1.046       .  S
N357        H362   1.046       .  S
N360        H363   1.045       .  S
N360        H364   1.045       .  S
C365        C366   1.407       .  A
C365        C370   1.404       .  A
C365        H372   1.084       .  S
C366        C367   1.420       .  A
C367        C368   1.406       .  A
C367        N374   1.438       .  S
C368        C369   1.400       .  A
C368        H373   1.084       .  S
C369        C370   1.409       .  A
C370        N371   1.433       .  S
N371        H375   1.046       .  S
N371        H376   1.046       .  S
N374        H377   1.046       .  S
N374        H378   1.046       .  S
C379        C380   1.401       .  A
C379        C384   1.396       .  A
C379        H386   1.084       .  S
C380        C381   1.413       .  A
C381        C382   1.411       .  A
C381        N388   1.437       .  S
C382        C383   1.404       .  A
C382        H387   1.083       .  S
C383        C384   1.411       .  A
C384        N385   1.439       .  S
N385        H389   1.045       .  S
N385        H390   1.046       .  S
N388        H391   1.046       .  S
N388        H392   1.045       .  S
C393        C394   1.409   1_554  A
C393        C398   1.397       .  A
C393        H400   1.083       .  S
C394        C395   1.421       .  A
C395        C396   1.401   1_556  A
C395        N402   1.432       .  S
C396        C397   1.405       .  A
C396        H401   1.084       .  S
C397        C398   1.414       .  A
C398        N399   1.433       .  S
N399        H403   1.045       .  S
N399        H404   1.046       .  S
N402        H405   1.046       .  S
N402        H406   1.045       .  S
C407        C408   1.405       .  A
C407        C412   1.398       .  A
C407        H414   1.084       .  S
C408        C409   1.419       .  A
C409        C410   1.397   1_554  A
C409        N416   1.433       .  S
C410        C411   1.405       .  A
C410        H415   1.084       .  S
C411        C412   1.420   1_556  A
C412        N413   1.433       .  S
N413        H417   1.047   1_554  S
N413        H418   1.043   1_554  S
N416        H419   1.046       .  S
N416        H420   1.044       .  S
C421        C422   1.403       .  A
C421        C426   1.400       .  A
C421        H428   1.084   1_545  S
C422        C423   1.408       .  A
C423        C424   1.408       .  A
C423        N430   1.432       .  S
C424        C425   1.406       .  A
C424        H429   1.084       .  S
C425        C426   1.410       .  A
C426        N427   1.438       .  S
N427        H431   1.046       .  S
N427        H432   1.046       .  S
N430        H433   1.046       .  S
N430        H434   1.046       .  S
C435        C436   1.400       .  A
C435        C440   1.405       .  A
C435        H442   1.084       .  S
C436        C437   1.408       .  A
C437        C438   1.403       .  A
C437        N444   1.432       .  S
C438        C439   1.407       .  A
C438        H443   1.083       .  S
C439        C440   1.421       .  A
C440        N441   1.438       .  S
N441        H445   1.046       .  S
N441        H446   1.045       .  S
N444        H447   1.045       .  S
N444        H448   1.046       .  S
C449        C450   1.406       .  A
C449        C454   1.403       .  A
C449        H456   1.084       .  S
C450        C451   1.413       .  A
C451        C452   1.405       .  A
C451        N458   1.438       .  S
C452        C453   1.408       .  A
C452        H457   1.083       .  S
C453        C454   1.411       .  A
C454        N455   1.432       .  S
N455        H459   1.046       .  S
N455        H460   1.046       .  S
N458        H461   1.046       .  S
N458        H462   1.045       .  S
C463        C464   1.402       .  A
C463        C468   1.403       .  A
C463        H470   1.084       .  S
C464        C465   1.416       .  A
C465        C466   1.408       .  A
C465        N472   1.438       .  S
C466        C467   1.405       .  A
C466        H471   1.084       .  S
C467        C468   1.413       .  A
C468        N469   1.432       .  S
N469        H473   1.046       .  S
N469        H474   1.046       .  S
N472        H475   1.045       .  S
N472        H476   1.046       .  S
C477        C478   1.404       .  A
C477        C482   1.412       .  A
C477        H484   1.084       .  S
C478        C479   1.407       .  A
C479        C480   1.398       .  A
C479        N486   1.433       .  S
C480        C481   1.400       .  A
C480        H485   1.084       .  S
C481        C482   1.414       .  A
C482        N483   1.437       .  S
N483        H487   1.045       .  S
N483        H488   1.045       .  S
N486        H489   1.046       .  S
N486        H490   1.046       .  S
C491        C492   1.409       .  A
C491        C496   1.400       .  A
C491        H498   1.084       .  S
C492        C493   1.415       .  A
C493        C494   1.409       .  A
C493        N500   1.438       .  S
C494        C495   1.408       .  A
C494        H499   1.084       .  S
C495        C496   1.406       .  A
C496        N497   1.432       .  S
N497        H501   1.046       .  S
N497        H502   1.045       .  S
N500        H503   1.046       .  S
N500        H504   1.046       .  S
C505        C506   1.406       .  A
C505        C510   1.406   1_556  A
C505        H512   1.083       .  S
C506        C507   1.421   1_556  A
C507        C508   1.397       .  A
C507        N514   1.433       .  S
C508        C509   1.402       .  A
C508        H513   1.084       .  S
C509        C510   1.415       .  A
C510        N511   1.438   1_655  S
N511        H515   1.046       .  S
N511        H516   1.046       .  S
N514        H517   1.045   1_554  S
N514        H518   1.045   1_554  S
C519        C520   1.407       .  A
C519        C524   1.407       .  A
C519        H526   1.084       .  S
C520        C521   1.412       .  A
C521        C522   1.404       .  A
C521        N528   1.438       .  S
C522        C523   1.405       .  A
C522        H527   1.084       .  S
C523        C524   1.413       .  A
C524        N525   1.438       .  S
N525        H529   1.045       .  S
N525        H530   1.046       .  S
N528        H531   1.046       .  S
N528        H532   1.045       .  S
C533        C534   1.402       .  A
C533        C538   1.404       .  A
C533        H540   1.084       .  S
C534        C535   1.417       .  A
C535        C536   1.399       .  A
C535        N542   1.433       .  S
C536        C537   1.405       .  A
C536        H541   1.083       .  S
C537        C538   1.417       .  A
C538        N539   1.433       .  S
N539        H543   1.046       .  S
N539        H544   1.046       .  S
N542        H545   1.046       .  S
N542        H546   1.043       .  S
C547        C548   1.403       .  A
C547        C552   1.402   1_556  A
C547        H554   1.084       .  S
C548        C549   1.416   1_556  A
C549        C550   1.408       .  A
C549        N556   1.438       .  S
C550        C551   1.406       .  A
C550        H555   1.083       .  S
C551        C552   1.414       .  A
C552        N553   1.433       .  S
N553        H557   1.046       .  S
N553        H558   1.046       .  S
N556        H559   1.045   1_554  S
N556        H560   1.046       .  S
C561        C562   1.404       .  A
C561        C566   1.409       .  A
C561        H568   1.084       .  S
C562        C563   1.412       .  A
C563        C564   1.403       .  A
C563        N570   1.438       .  S
C564        C565   1.402       .  A
C564        H569   1.084   1_655  S
C565        C566   1.410       .  A
C566        N567   1.432       .  S
N567        H571   1.045       .  S
N567        H572   1.046       .  S
N570        H573   1.045       .  S
N570        H574   1.046       .  S
C575        C576   1.409       .  A
C575        C580   1.402       .  A
C575        H582   1.084       .  S
C576        C577   1.410       .  A
C577        C578   1.404       .  A
C577        N584   1.432       .  S
C578        C579   1.408       .  A
C578        H583   1.084       .  S
C579        C580   1.407       .  A
C580        N581   1.432       .  S
N581        H585   1.045       .  S
N581        H586   1.046       .  S
N584        H587   1.045       .  S
N584        H588   1.046       .  S
C589        C590   1.403       .  A
C589        C594   1.403       .  A
C589        H596   1.084       .  S
C590        C591   1.409       .  A
C591        C592   1.401       .  A
C591        N598   1.433       .  S
C592        C593   1.406       .  A
C592        H597   1.083       .  S
C593        C594   1.416       .  A
C594        N595   1.433       .  S
N595        H599   1.046       .  S
N595        H600   1.046       .  S
N598        H601   1.045   1_545  S
N598        H602   1.046       .  S
C603        C604   1.407       .  A
C603        C608   1.405       .  A
C603        H610   1.084       .  S
C604        C605   1.413       .  A
C605        C606   1.405       .  A
C605        N612   1.432       .  S
C606        C607   1.405       .  A
C606        H611   1.084       .  S
C607        C608   1.409       .  A
C608        N609   1.432       .  S
N609        H613   1.046       .  S
N609        H614   1.046       .  S
N612        H615   1.046       .  S
N612        H616   1.046       .  S
C617        C618   1.408       .  A
C617        C622   1.401       .  A
C617        H624   1.084       .  S
C618        C619   1.411       .  A
C619        C620   1.404       .  A
C619        N626   1.432       .  S
C620        C621   1.406       .  A
C620        H625   1.084       .  S
C621        C622   1.408       .  A
C622        N623   1.433       .  S
N623        H627   1.046       .  S
N623        H628   1.045       .  S
N626        H629   1.046       .  S
N626        H630   1.046       .  S
C631        C632   1.408       .  A
C631        C636   1.404       .  A
C631        H638   1.084       .  S
C632        C633   1.420       .  A
C633        C634   1.396       .  A
C633        N640   1.432       .  S
C634        C635   1.404       .  A
C634        H639   1.084       .  S
C635        C636   1.411       .  A
C636        N637   1.432       .  S
N637        H641   1.046       .  S
N637        H642   1.046       .  S
N640        H643   1.045       .  S
N640        H644   1.045       .  S
C645        C646   1.408       .  A
C645        C650   1.407       .  A
C645        H652   1.083       .  S
C646        C647   1.418       .  A
C647        C648   1.396       .  A
C647        N654   1.433       .  S
C648        C649   1.403       .  A
C648        H653   1.084       .  S
C649        C650   1.410       .  A
C650        N651   1.438       .  S
N651        H655   1.045       .  S
N651        H656   1.046       .  S
N654        H657   1.045       .  S
N654        H658   1.045       .  S
C659        C660   1.406       .  A
C659        C664   1.409       .  A
C659        H666   1.084       .  S
C660        C661   1.409       .  A
C661        C662   1.396       .  A
C661        N668   1.434   1_545  S
C662        C663   1.402       .  A
C662        H667   1.084   1_655  S
C663        C664   1.417       .  A
C664        N665   1.432       .  S
N665        H669   1.045       .  S
N665        H670   1.045       .  S
N668        H671   1.045   1_565  S
N668        H672   1.046       .  S
