geometry optimzed in LAMMPS
_audit_creation_date              2020-11-30 
_audit_creation_method            'lammps2cif' 
_symmetry_space_group_name_H-M    'P1' 
_symmetry_Int_Tables_number       1 
_symmetry_cell_setting            triclinic 
loop_ 
_symmetry_equiv_pos_as_xyz 
  x,y,z 
_cell_length_a                    27.80232225706067 
_cell_length_b                    27.760654577398775 
_cell_length_c                    41.97299607437144 
_cell_angle_alpha                 89.54123482861887 
_cell_angle_beta                  90.24872707876165 
_cell_angle_gamma                 90.40192289601008 
loop_ 
_atom_site_label 
_atom_site_type_symbol 
_atom_site_fract_x 
_atom_site_fract_y 
_atom_site_fract_z 
_atom_site_charge 
C1          C  0.83823171  0.60188714  0.31772470     0.03420
C2          C  0.85637595  0.64639246  0.30797423    -0.12730
C3          C  0.90015429  0.66356748  0.31965250     0.00920
C4          C  0.92539410  0.63674030  0.34263305    -0.11260
C5          C  0.90791529  0.59129377  0.35266996     0.03410
C6          C  0.86481757  0.57356992  0.33916522    -0.10680
H7          H  0.83536308  0.66880480  0.29192763     0.09000
H8          H  0.95804884  0.65162407  0.35284410     0.06530
H9          H  0.85144246  0.53808567  0.34551654     0.06380
C10         C  0.73104167  0.83711411  0.07857930     0.03420
C11         C  0.71419420  0.79074224  0.08608268    -0.12730
C12         C  0.66856620  0.77485046  0.07617008     0.00920
C13         C  0.63891383  0.80655162  0.05861734    -0.11260
C14         C  0.65435754  0.85398396  0.05120673     0.03410
C15         C  0.70072835  0.86855773  0.06148995    -0.10680
H16         H  0.73623353  0.76736825  0.10078324     0.09000
H17         H  0.60442013  0.79354987  0.05016256     0.06530
H18         H  0.71363375  0.90447951  0.05601800     0.06380
C19         C  0.38461702  0.76704308  0.35290884     0.03420
C20         C  0.33616569  0.77787508  0.34905051    -0.12730
C21         C  0.31854082  0.82303289  0.35663994     0.00920
C22         C  0.34868280  0.85593615  0.37249445    -0.11260
C23         C  0.39866706  0.84664603  0.37731031     0.03410
C24         C  0.41591840  0.80135699  0.36645327    -0.10680
H25         H  0.31265152  0.75226843  0.33715147     0.09000
H26         H  0.33195646  0.88857199  0.37999580     0.06530
H27         H  0.45352653  0.79235046  0.36715724     0.06380
C28         C  0.89433440  0.28623678  0.10317268     0.03420
C29         C  0.92207781  0.31427154  0.08200978    -0.12730
C30         C  0.90439123  0.35827718  0.06963144     0.00920
C31         C  0.85822901  0.37361977  0.07904110    -0.11260
C32         C  0.83087062  0.34558675  0.10043547     0.03410
C33         C  0.85011922  0.30355783  0.11319203    -0.10680
H34         H  0.95695379  0.30145431  0.07483839     0.09000
H35         H  0.84300208  0.40626824  0.06907942     0.06530
H36         H  0.82966901  0.28338508  0.13080910     0.06380
C37         C  0.93747995  0.85603918  0.27654273     0.42740
N38         N  0.97492991  0.92233232  0.26971931     0.01630
C39         C  0.98354266  0.07084164  0.13758732    -0.06240
H40         H  0.97662196  0.90091625  0.10451069     0.07130
C41         C  0.14174932  0.88300143  0.18193451    -0.06590
Co42       Co  0.94327620  0.97627416  0.21086118     0.74180
N43         N  0.97744461  0.92771118  0.15273571    -0.25770
Co44       Co  0.03450376  0.97757481  0.15567656     0.74070
C45         C  0.12234961  0.85809805  0.15386050     0.42850
N46         N  0.11527899  0.92922890  0.25420141     0.01250
N47         N  0.08513087  0.92433418  0.15982721     0.01360
N48         N  0.92212522  0.07102434  0.17308592    -0.46620
H49         H  0.89161563  0.86754624  0.23120864     0.07110
N50         N  0.94478930  0.92617207  0.17528737     0.01640
N51         N  0.09052752  0.02794115  0.15710712     0.01380
C52         C  0.14971927  0.07316002  0.14228711     0.42990
N53         N  0.08243226  0.92875266  0.27666606    -0.25230
C54         C  0.90080268  0.05306845  0.25235914    -0.06150
N55         N  0.97232433  0.88425414  0.28860450    -0.46330
N56         N  0.10794120  0.05267092  0.13250050    -0.46560
C57         C  0.90646653  0.06833942  0.28518585     0.42760
N58         N  0.94845316  0.03151901  0.17602940     0.01630
N59         N  0.07461972  0.03151329  0.27407874    -0.25250
N60         N  0.94395236  0.92111323  0.24570338    -0.25740
N61         N  0.10944803  0.03462691  0.25277402     0.01270
H62         H  0.05175172  0.07650707  0.31256539     0.07160
H63         H  0.18884045  0.06152483  0.18983638     0.07190
N64         N  0.98434850  0.03109367  0.15548523    -0.25790
N65         N  0.11641625  0.92402016  0.18369040    -0.25400
N66         N  0.96746751  0.02560433  0.27165245     0.01630
C67         C  0.91291665  0.88387307  0.13788051     0.43030
C68         C  0.09867155  0.90078861  0.30085722    -0.06650
N69         N  0.11951897  0.02947420  0.18189194    -0.25400
H70         H  0.16912618  0.87149888  0.19864492     0.07180
N71         N  0.90621739  0.90110067  0.16731962    -0.46620
H72         H  0.08168561  0.89670420  0.32385686     0.07170
C73         C  0.11648377  0.09756836  0.28172506     0.42870
C74         C  0.91873386  0.87981691  0.24787111    -0.06150
Co75       Co  0.02472559  0.97689812  0.27368642     0.73820
N76         N  0.15324900  0.90322084  0.26145471    -0.46340
C77         C  0.94252574  0.09692081  0.14914979     0.43130
N78         N  0.94860250  0.04962275  0.29580717    -0.46330
Co79       Co  0.11610764  0.97960891  0.21816408     0.73890
C80         C  0.15680759  0.05822887  0.17527254    -0.06660
C81         C  0.96056864  0.90182697  0.12791860    -0.06220
N82         N  0.93896290  0.02590649  0.24656752    -0.25750
N83         N  0.08751552  0.88598406  0.14158381    -0.46510
H84         H  0.00940959  0.08076757  0.11947594     0.07140
C85         C  0.07664330  0.06908269  0.29351900    -0.06630
Cl86       Cl  0.02971345  0.97748384  0.21462954    -0.49640
C87         C  0.14593899  0.88345641  0.29033777     0.42890
H88         H  0.86914366  0.05492165  0.23732993     0.07110
N89         N  0.13509941  0.07487896  0.25607219    -0.46350
C90         C  0.21115068  0.60222000  0.10583575     0.03420
C91         C  0.19574806  0.64655438  0.11713954    -0.12730
C92         C  0.15179009  0.66575890  0.10778178     0.00920
C93         C  0.12233551  0.63998777  0.08658068    -0.11260
C94         C  0.13803076  0.59616331  0.07330352     0.03410
C95         C  0.18294138  0.57749857  0.08326377    -0.10680
H96         H  0.21897426  0.66705013  0.13292996     0.09000
H97         H  0.08732299  0.65428394  0.08055650     0.06530
H98         H  0.19625091  0.54426484  0.07338429     0.06380
C99         C  0.73342981  0.11733209  0.35207199     0.03420
C100        C  0.71810522  0.16438047  0.34585702    -0.12730
C101        C  0.67236526  0.17948531  0.35526752     0.00920
C102        C  0.64279326  0.14755813  0.37277757    -0.11260
C103        C  0.65792001  0.10015310  0.37998196     0.03410
C104        C  0.70293936  0.08521141  0.36845676    -0.10680
H105        H  0.74054733  0.18817370  0.33158655     0.09000
H106        H  0.60802529  0.15995355  0.38067374     0.06530
H107        H  0.71429831  0.04830358  0.37161674     0.06380
C108        C  0.13762958  0.36466171  0.35526413     0.03420
C109        C  0.12218838  0.31777693  0.34676869    -0.12730
C110        C  0.14893346  0.29051504  0.32508846     0.00920
C111        C  0.19169992  0.30900260  0.31287977    -0.11260
C112        C  0.20847019  0.35454043  0.32127978     0.03410
C113        C  0.18114812  0.38267047  0.34216286    -0.10680
H114        H  0.09006528  0.30215251  0.35717619     0.09000
H115        H  0.21305190  0.28674712  0.29728021     0.06530
H116        H  0.19380815  0.41847065  0.34809588     0.06380
C117        C  0.39669520  0.10352035  0.04620619     0.03420
C118        C  0.35030532  0.08951337  0.05645022    -0.12730
C119        C  0.31927510  0.12242381  0.07092823     0.00920
C120        C  0.33530004  0.16954534  0.07603168    -0.11260
C121        C  0.38162158  0.18393558  0.06721298     0.03410
C122        C  0.41197366  0.15138457  0.05176074    -0.10680
H123        H  0.33829543  0.05260617  0.05368972     0.09000
H124        H  0.31325004  0.19409921  0.08952475     0.06530
H125        H  0.44744002  0.16348840  0.04468311     0.06380
C126        C  0.61453529  0.35003393  0.28643051     0.42740
N127        N  0.57278216  0.41145620  0.27119044     0.01630
C128        C  0.44984022  0.40241876  0.12633976    -0.06240
H129        H  0.62588143  0.45370427  0.11810550     0.07130
C130        C  0.60060665  0.60361783  0.17155399    -0.06590
Co131      Co  0.52324428  0.38724486  0.21039796     0.74180
N132        N  0.57754008  0.42863376  0.15458909    -0.25770
Co133      Co  0.52372125  0.47835894  0.15342723     0.74070
C134        C  0.61522333  0.59738214  0.13866235     0.42850
N135        N  0.58044671  0.55411816  0.24910117     0.01250
N136        N  0.57301068  0.53586820  0.15392550     0.01360
N137        N  0.44860409  0.34991343  0.16723295    -0.46620
H138        H  0.60067290  0.31150622  0.23920154     0.07110
N139        N  0.57866935  0.39293573  0.17569384     0.01640
N140        N  0.46972990  0.52811606  0.15649373     0.01380
C141        C  0.40323450  0.56449188  0.14957725     0.42990
N142        N  0.57885135  0.51922682  0.27076606    -0.25230
C143        C  0.42536982  0.36457377  0.24671692    -0.06150
N144        N  0.59640135  0.39281138  0.29596234    -0.46330
N145        N  0.43146968  0.52991859  0.13784909    -0.46560
C146        C  0.40092760  0.38515630  0.27443813     0.42760
N147        N  0.47327128  0.38885423  0.17454228     0.01630
N148        N  0.47666271  0.52709162  0.27397850    -0.25250
N149        N  0.57276358  0.38230091  0.24666740    -0.25740
N150        N  0.47544989  0.55894272  0.25064311     0.01270
H151        H  0.45003112  0.52937292  0.32229331     0.07160
H152        H  0.41526005  0.61100025  0.19434795     0.07190
N153        N  0.47493139  0.42060941  0.15117790    -0.25790
N154        N  0.57392361  0.56487125  0.17849405    -0.25400
N155        N  0.46927515  0.41965059  0.26851384     0.01630
C156        C  0.64365126  0.38766982  0.14886648     0.43030
C157        C  0.61776882  0.52126084  0.28921919    -0.06650
N158        N  0.46884028  0.55933420  0.18014264    -0.25400
H159        H  0.60243405  0.63588314  0.18580816     0.07180
N160        N  0.61855446  0.36713794  0.17314104    -0.46620
H161        H  0.62659105  0.49626188  0.30822583     0.07170
C162        C  0.43419580  0.59223846  0.28746305     0.42870
C163        C  0.59911337  0.34360486  0.25358896    -0.06150
Co164      Co  0.52437201  0.46920848  0.27178482     0.73820
N165        N  0.62065084  0.57995955  0.25126260    -0.46340
C166        C  0.43272951  0.35466045  0.13718856     0.43130
N167        N  0.43050561  0.41891154  0.28652583    -0.46330
Co168      Co  0.52478964  0.56005299  0.21466801     0.73890
C169        C  0.42744983  0.58395803  0.17789306    -0.06660
C170        C  0.61677778  0.42801716  0.13666496    -0.06220
N171        N  0.46763808  0.38835833  0.24491113    -0.25750
N172        N  0.59614876  0.55474398  0.12906564    -0.46510
H173        H  0.44920033  0.41768304  0.10255933     0.07140
C174        C  0.45152798  0.54497690  0.29862642    -0.06630
Cl175      Cl  0.52414011  0.47368651  0.21259227    -0.49640
C176        C  0.64528834  0.56123445  0.27633169     0.42890
H177        H  0.41276665  0.33771450  0.23009288     0.07110
N178        N  0.45095122  0.59771725  0.25774342    -0.46350
C179        C  0.50403582  0.96016762  0.46838380     0.00850
C180        C  0.53948373  0.99477768  0.46975153     0.00850
C181        C  0.99946341  0.46799113  0.96946549     0.00850
C182        C  0.03646789  0.50084519  0.96976424     0.00850
C183        C  0.03846301  0.46146064  0.45827770     0.00850
C184        C  0.00494306  0.49731335  0.45818524     0.00850
C185        C  0.50800559  0.99548054  0.95788062     0.00850
C186        C  0.54459417  0.96278116  0.95779054     0.00850
C187        C  0.70598058  0.84881791  0.82333784     0.03420
C188        C  0.67951441  0.87551141  0.84540330    -0.12730
C189        C  0.63226553  0.86142804  0.85350666     0.00920
C190        C  0.61191826  0.82053871  0.83884942    -0.11260
C191        C  0.63849354  0.79404958  0.81687295     0.03410
C192        C  0.68487317  0.80886500  0.80893750    -0.10680
H193        H  0.69625585  0.90617845  0.85691252     0.09000
H194        H  0.57563111  0.80904856  0.84447896     0.06530
H195        H  0.70520661  0.78830202  0.79184716     0.06380
C196        C  0.81304004  0.34404613  0.84941867     0.03420
C197        C  0.84372838  0.37615544  0.86556000    -0.12730
C198        C  0.89017103  0.36218204  0.87570157     0.00920
C199        C  0.90571521  0.31514139  0.86840552    -0.11260
C200        C  0.87593927  0.28330768  0.85112743     0.03410
C201        C  0.82993476  0.29821365  0.84185572    -0.10680
H202        H  0.83108333  0.41217745  0.87022428     0.09000
H203        H  0.94045617  0.30260851  0.87651272     0.06530
H204        H  0.80788788  0.27465495  0.82729893     0.06380
C205        C  0.40670286  0.09374705  0.85473398     0.03420
C206        C  0.36169801  0.07524692  0.84440613    -0.12730
C207        C  0.33296020  0.10176152  0.82295608     0.00920
C208        C  0.34810034  0.14733185  0.81298294    -0.11260
C209        C  0.39136632  0.16714362  0.82339885     0.03410
C210        C  0.42124026  0.13994794  0.84365631    -0.10680
H211        H  0.34858254  0.04090517  0.85323167     0.09000
H212        H  0.32536639  0.16812554  0.79701555     0.06530
H213        H  0.45524766  0.15529751  0.85122514     0.06380
C214        C  0.16144288  0.69081865  0.85504855     0.03420
C215        C  0.13254358  0.65827391  0.87258775    -0.12730
C216        C  0.14703093  0.61013136  0.87760217     0.00920
C217        C  0.19083325  0.59513234  0.86414995    -0.11260
C218        C  0.22095528  0.62766100  0.84770150     0.03410
C219        C  0.20551157  0.67507783  0.84288816    -0.10680
H220        H  0.09901507  0.67076276  0.88250785     0.09000
H221        H  0.20177198  0.55794824  0.86636801     0.06530
H222        H  0.22678326  0.69914459  0.82810509     0.06380
C223        C  0.14641567  0.34983230  0.54842293     0.03420
C224        C  0.19443247  0.36458389  0.55365847    -0.12730
C225        C  0.22672171  0.33481664  0.57047993     0.00920
C226        C  0.21157878  0.28880322  0.58029218    -0.11260
C227        C  0.16474117  0.27255463  0.57424837     0.03410
C228        C  0.13209197  0.30370523  0.55917198    -0.10680
H229        H  0.20705910  0.39890670  0.54448989     0.09000
H230        H  0.23569704  0.26635235  0.59417426     0.06530
H231        H  0.09532176  0.29169250  0.55580655     0.06380
C232        C  0.64497644  0.16924289  0.60571047     0.03420
C233        C  0.61649364  0.14120690  0.58523014    -0.12730
C234        C  0.63505076  0.09916497  0.57130495     0.00920
C235        C  0.68252085  0.08522234  0.57906016    -0.11260
C236        C  0.71063679  0.11279844  0.60034917     0.03410
C237        C  0.69109506  0.15415349  0.61363409    -0.10680
H238        H  0.58011973  0.15255457  0.58001851     0.09000
H239        H  0.69799431  0.05403492  0.56779023     0.06530
H240        H  0.71254418  0.17577906  0.62982377     0.06380
C241        C  0.60342745  0.60308447  0.77220860     0.42740
N242        N  0.56797178  0.53579002  0.76541908     0.01630
C243        C  0.56764451  0.38965847  0.63342771    -0.06240
H244        H  0.57283432  0.55699757  0.60024458     0.07130
C245        C  0.40212890  0.57185964  0.67301445    -0.06590
Co246      Co  0.60319615  0.48194168  0.70818040     0.74180
N247        N  0.57099789  0.53117194  0.64890919    -0.25770
Co248      Co  0.51430249  0.48113912  0.65092000     0.74070
C249        C  0.42311313  0.59816338  0.64600605     0.42850
N250        N  0.42788316  0.52717754  0.74687727     0.01250
N251        N  0.46292661  0.53389700  0.65389463     0.01360
N252        N  0.62485315  0.38635965  0.67211400    -0.46620
H253        H  0.65192756  0.59210848  0.72838162     0.07110
N254        N  0.60355099  0.53195655  0.67173071     0.01640
N255        N  0.45879070  0.42992496  0.65127795     0.01380
C256        C  0.40128021  0.38347214  0.63528672     0.42990
N257        N  0.46015298  0.52789395  0.76990197    -0.25230
C258        C  0.64431125  0.40538284  0.75189778    -0.06150
N259        N  0.56867035  0.57413668  0.78370411    -0.46330
N260        N  0.44298353  0.40506743  0.62641640    -0.46560
C261        C  0.63689734  0.39026620  0.78473557     0.42760
N262        N  0.59930638  0.42651235  0.67390231     0.01630
N263        N  0.47018508  0.42475264  0.76796186    -0.25250
N264        N  0.60022418  0.53738892  0.74230955    -0.25740
N265        N  0.43524164  0.42208400  0.74653814     0.01270
H266        H  0.49466035  0.37776770  0.80560808     0.07160
H267        H  0.35938701  0.39463053  0.68143634     0.07190
N268        N  0.56524903  0.42823597  0.65186027    -0.25790
N269        N  0.42952914  0.53240876  0.67629244    -0.25400
N270        N  0.57662830  0.43272069  0.76883764     0.01630
C271        C  0.63666149  0.57285089  0.63379945     0.43030
C272        C  0.44236721  0.55445912  0.79390071    -0.06650
N273        N  0.42868524  0.42756073  0.67530749    -0.25400
H274        H  0.37302575  0.58205269  0.68852428     0.07180
N275        N  0.64297681  0.55565491  0.66355182    -0.46620
H276        H  0.45816776  0.55748540  0.81739469     0.07170
C277        C  0.42964319  0.35763146  0.77466903     0.42870
C278        C  0.62435213  0.57933773  0.74452285    -0.06150
Co279      Co  0.51882038  0.48048656  0.76866452     0.73820
N280        N  0.38859263  0.55119570  0.75377324    -0.46340
C281        C  0.60681780  0.36199165  0.64677793     0.43130
N282        N  0.59431460  0.40907542  0.79386478    -0.46330
Co283      Co  0.42943546  0.47705399  0.71125714     0.73890
C284        C  0.39222817  0.39828964  0.66786714    -0.06660
C285        C  0.58852271  0.55641628  0.62386455    -0.06220
N286        N  0.60636542  0.43240076  0.74459831    -0.25750
N287        N  0.46079452  0.57275851  0.63567015    -0.46510
H288        H  0.54289268  0.38076861  0.61437922     0.07140
C289        C  0.46949739  0.38579218  0.78660580    -0.06630
Cl290      Cl  0.51643917  0.48028719  0.70975356    -0.49640
C291        C  0.39447858  0.56987853  0.78294639     0.42890
H292        H  0.67686270  0.40362404  0.73793874     0.07110
N293        N  0.40978537  0.38160869  0.74963045    -0.46350
C294        C  0.81640867  0.62055944  0.57341781     0.03420
C295        C  0.84831143  0.59161310  0.55590611    -0.12730
C296        C  0.89610580  0.60704586  0.54989618     0.00920
C297        C  0.91141074  0.65159470  0.56262553    -0.11260
C298        C  0.87950561  0.68149220  0.57907045     0.03410
C299        C  0.83225295  0.66566814  0.58417429    -0.10680
H300        H  0.83555399  0.55757096  0.54659398     0.09000
H301        H  0.94826575  0.66338528  0.55972116     0.06530
H302        H  0.80825242  0.68774155  0.59806444     0.06380
C303        C  0.33032716  0.86032886  0.60888607     0.03420
C304        C  0.35700722  0.88601528  0.58579182    -0.12730
C305        C  0.39900550  0.86592498  0.57271426     0.00920
C306        C  0.41374318  0.81995475  0.58355061    -0.11260
C307        C  0.38617587  0.79349984  0.60558232     0.03410
C308        C  0.34549211  0.81465035  0.61854479    -0.10680
H309        H  0.34451909  0.92083952  0.57760441     0.09000
H310        H  0.44598633  0.80406903  0.57415946     0.06530
H311        H  0.32431255  0.79454850  0.63579673     0.06380
C312        C  0.92801623  0.11061096  0.78520400     0.42740
N313        N  0.96848638  0.04810626  0.77147150     0.01630
C314        C  0.09494900  0.04874381  0.62882118    -0.06240
H315        H  0.91789270  0.00161050  0.61877855     0.07130
C316        C  0.94151130  0.85209679  0.67772619    -0.06590
Co317      Co  0.01939855  0.07010511  0.71087955     0.74180
N318        N  0.96531460  0.02693463  0.65570687    -0.25770
Co319      Co  0.01853975  0.97644596  0.65691296     0.74070
C320        C  0.92627405  0.85768638  0.64474618     0.42850
N321        N  0.96124807  0.90384532  0.75412279     0.01250
N322        N  0.96885575  0.91941862  0.65874812     0.01360
N323        N  0.09643741  0.10392521  0.66766071    -0.46620
H324        H  0.94330490  0.14819915  0.73751421     0.07110
N325        N  0.96453678  0.06382875  0.67548576     0.01640
N326        N  0.07224784  0.92680948  0.66193840     0.01380
C327        C  0.14024085  0.89265378  0.65707477     0.42990
N328        N  0.96175268  0.94068951  0.77395657    -0.25230
C329        C  0.11689982  0.09282121  0.74789565    -0.06150
N330        N  0.94509623  0.06766041  0.79564610    -0.46330
N331        N  0.11095566  0.92557044  0.64400156    -0.46560
C332        C  0.14048473  0.07287751  0.77649362     0.42760
N333        N  0.07005456  0.06629275  0.67579947     0.01630
N334        N  0.06448883  0.93274587  0.77901068    -0.25250
N335        N  0.96934961  0.07679155  0.74639334    -0.25740
N336        N  0.06622693  0.89934251  0.75701654     0.01270
H337        H  0.09023651  0.93392142  0.82767024     0.07160
H338        H  0.12813836  0.84707082  0.70283415     0.07190
N339        N  0.06819902  0.03319312  0.65360855    -0.25790
N340        N  0.96836399  0.89089631  0.68388475    -0.25400
N341        N  0.07173059  0.03943210  0.77061606     0.01630
C342        C  0.90088662  0.06991045  0.64674980     0.43030
C343        C  0.92173300  0.94058604  0.79117613    -0.06650
N344        N  0.07355104  0.89660902  0.68645446    -0.25400
H345        H  0.93969246  0.82022084  0.69268390     0.07180
N346        N  0.92568424  0.09077697  0.67100764    -0.46620
H347        H  0.91218267  0.96695176  0.80884712     0.07170
C348        C  0.10681341  0.86888901  0.79583027     0.42870
C349        C  0.94383254  0.11620526  0.75238934    -0.06150
Co350      Co  0.01652674  0.99036890  0.77436778     0.73820
N351        N  0.92130497  0.87767997  0.75687940    -0.46340
C352        C  0.11359079  0.09616596  0.63832744     0.43130
N353        N  0.11017990  0.04015484  0.78909922    -0.46330
Co354      Co  0.01731083  0.89676710  0.72043521     0.73890
C355        C  0.11571117  0.87309724  0.68542476    -0.06660
C356        C  0.92686637  0.02784442  0.63680807    -0.06220
N357        N  0.07427055  0.06972130  0.74617998    -0.25750
N358        N  0.94521278  0.90011778  0.63431526    -0.46510
H359        H  0.09627337  0.03187843  0.60570832     0.07140
C360        C  0.08944173  0.91684570  0.80460557    -0.06630
Cl361      Cl  0.01767757  0.98345380  0.71566061    -0.49640
C362        C  0.89515854  0.89921451  0.77984159     0.42890
H363        H  0.13033750  0.11867072  0.73066243     0.07110
N364        N  0.09048318  0.86099430  0.76616271    -0.46350
C365        C  0.28386710  0.87723970  0.62162040    -0.05180
C366        C  0.27472598  0.87188709  0.65444291    -0.32610
C367        C  0.22806537  0.87556209  0.66644877     0.36640
C368        C  0.18979738  0.88619683  0.64566855    -0.05540
C369        C  0.19932724  0.89434410  0.61318594    -0.32510
C370        C  0.24580329  0.88967373  0.60105665     0.36550
H371        H  0.30371901  0.86267434  0.67067436     0.16920
O372        O  0.22061176  0.86987397  0.69853019    -0.60000
H373        H  0.17027909  0.90305625  0.59687621     0.16930
O374        O  0.25281208  0.89351461  0.56880809    -0.60100
H375        H  0.25434909  0.92861361  0.56429738     0.43930
H376        H  0.22018511  0.83455137  0.70228127     0.43880
C377        C  0.89537738  0.72859350  0.59239380    -0.05180
C378        C  0.86703229  0.76999156  0.58761758    -0.32610
C379        C  0.87816386  0.81340072  0.60308110     0.36640
C380        C  0.91759324  0.81563609  0.62402676    -0.05540
C381        C  0.94703827  0.77498346  0.62771509    -0.32510
C382        C  0.93640280  0.73187420  0.61206079     0.36550
H383        H  0.83542433  0.76825263  0.57247068     0.16920
O384        O  0.84846994  0.85226141  0.59927417    -0.60000
H385        H  0.97776035  0.77612064  0.64367785     0.16930
O386        O  0.96403203  0.69210386  0.61827710    -0.60100
H387        H  0.99428109  0.69751978  0.60628418     0.43930
H388        H  0.86275731  0.87140710  0.58160514     0.43880
C389        C  0.41341636  0.64757091  0.63538664    -0.05180
C390        C  0.45197955  0.67998770  0.63171013    -0.32610
C391        C  0.44412133  0.72745055  0.62155175     0.36640
C392        C  0.39708767  0.74267817  0.61422939    -0.05540
C393        C  0.35885264  0.70918205  0.61677837    -0.32510
C394        C  0.36664056  0.66233062  0.62790667     0.36550
H395        H  0.48826176  0.66881137  0.63754992     0.16920
O396        O  0.48210150  0.75924609  0.62077645    -0.60000
H397        H  0.32252940  0.71948029  0.61039851     0.16930
O398        O  0.32865344  0.63070415  0.63016972    -0.60100
H399        H  0.31392906  0.63712647  0.65118173     0.43930
H400        H  0.50190552  0.74940191  0.60236289     0.43880
C401        C  0.67877580  0.58146486  0.61296548    -0.05180
C402        C  0.71757351  0.54929093  0.61470621    -0.32610
C403        C  0.76142632  0.55979968  0.59975867     0.36640
C404        C  0.76746565  0.60353425  0.58296879    -0.05540
C405        C  0.72765772  0.63451246  0.57977625    -0.32510
C406        C  0.68349368  0.62354522  0.59444467     0.36550
H407        H  0.71453983  0.51663064  0.62890084     0.16920
O408        O  0.79947911  0.52930650  0.60437289    -0.60000
H409        H  0.73153315  0.66840769  0.56704046     0.16930
O410        O  0.64666462  0.65605431  0.59274675    -0.60100
H411        H  0.62638514  0.64528601  0.57462218     0.43930
H412        H  0.79441531  0.50290750  0.58890722     0.43880
C413        C  0.61802884  0.31261658  0.63709536    -0.05180
C414        C  0.61280357  0.30076413  0.60480161    -0.32610
C415        C  0.61875878  0.25353315  0.59453778     0.36640
C416        C  0.62992099  0.21711781  0.61675114    -0.05540
C417        C  0.63459349  0.22881836  0.64918160    -0.32510
C418        C  0.62895439  0.27629811  0.65941485     0.36550
H419        H  0.60456378  0.32843656  0.58729623     0.16920
O420        O  0.61683756  0.24395398  0.56253939    -0.60000
H421        H  0.64362838  0.20112620  0.66649439     0.16930
O422        O  0.63227315  0.28637975  0.69128045    -0.60100
H423        H  0.66692511  0.29269676  0.69526196     0.43930
H424        H  0.58209486  0.24112769  0.55737428     0.43880
C425        C  0.85231426  0.08186764  0.63558505    -0.05180
C426        C  0.81823748  0.04457668  0.63245615    -0.32610
C427        C  0.77258844  0.05348368  0.61969018     0.36640
C428        C  0.76070175  0.10022557  0.60935981    -0.05540
C429        C  0.79577096  0.13712414  0.61143510    -0.32510
C430        C  0.84095768  0.12836223  0.62494958     0.36550
H431        H  0.82683454  0.00839796  0.64041396     0.16920
O432        O  0.73903428  0.01703336  0.61926940    -0.60000
H433        H  0.78773236  0.17323162  0.60309372     0.16930
O434        O  0.87436498  0.16487525  0.62640931    -0.60100
H435        H  0.86857297  0.18086490  0.64707611     0.43930
H436        H  0.74806338  0.99644416  0.60106875     0.43880
C437        C  0.12292475  0.13767907  0.61712507    -0.05180
C438        C  0.16471108  0.14003544  0.59870857    -0.32610
C439        C  0.17773722  0.18314766  0.58321122     0.36640
C440        C  0.14891825  0.22463951  0.58637643    -0.05540
C441        C  0.10556823  0.22097400  0.60312654    -0.32510
C442        C  0.09246266  0.17809203  0.61836671     0.36550
H443        H  0.18822157  0.10915669  0.59743834     0.16920
O444        O  0.21927789  0.18467266  0.56572917    -0.60000
H445        H  0.08267200  0.25209782  0.60575669     0.16930
O446        O  0.04988756  0.17614388  0.63481431    -0.60100
H447        H  0.05592449  0.19409274  0.65480203     0.43930
H448        H  0.20889288  0.17971723  0.54335152     0.43880
C449        C  0.36128761  0.37493837  0.61293208    -0.05180
C450        C  0.32291380  0.40753748  0.61248305    -0.32610
C451        C  0.27998556  0.39658999  0.59663411     0.36640
C452        C  0.27494694  0.35231301  0.58073445    -0.05540
C453        C  0.31488490  0.32138410  0.57916148    -0.32510
C454        C  0.35777632  0.33235443  0.59533513     0.36550
H455        H  0.32526926  0.44058171  0.62600979     0.16920
O456        O  0.24167399  0.42705256  0.59975083    -0.60000
H457        H  0.31188001  0.28736026  0.56681744     0.16930
O458        O  0.39490559  0.30009304  0.59528831    -0.60100
H459        H  0.38835729  0.27787144  0.61340516     0.43930
H460        H  0.24809274  0.45402184  0.58468413     0.43880
C461        C  0.26716262  0.61140252  0.83364269    -0.05180
C462        C  0.26779887  0.56898653  0.81577192    -0.32610
C463        C  0.30957718  0.55446754  0.80023774     0.36640
C464        C  0.35226778  0.58213595  0.80262629    -0.05540
C465        C  0.35255595  0.62331035  0.82170414    -0.32510
C466        C  0.31027039  0.63833375  0.83693169     0.36550
H467        H  0.23529953  0.54764359  0.81295872     0.16920
O468        O  0.30847453  0.51260594  0.78305564    -0.60000
H469        H  0.38508852  0.64475615  0.82391810     0.16930
O470        O  0.31161683  0.67874887  0.85552958    -0.60100
H471        H  0.31421659  0.70628400  0.84041110     0.43930
H472        H  0.29196406  0.52092532  0.76276470     0.43880
C473        C  0.14398413  0.73976219  0.84627208    -0.05180
C474        C  0.09851861  0.74437625  0.83204071    -0.32610
C475        C  0.08482662  0.78766123  0.81743728     0.36640
C476        C  0.11642044  0.82768778  0.81734804    -0.05540
C477        C  0.16010054  0.82459860  0.83391123    -0.32510
C478        C  0.17418733  0.78086102  0.84818365     0.36550
H479        H  0.07467956  0.71343665  0.83038878     0.16920
O480        O  0.04087026  0.79019715  0.80249608    -0.60000
H481        H  0.18453736  0.85516775  0.83419270     0.16930
O482        O  0.21763732  0.77835963  0.86373492    -0.60100
H483        H  0.24242568  0.78146585  0.84689856     0.43930
H484        H  0.04480787  0.77290175  0.78208736     0.43880
C485        C  0.40330212  0.21680230  0.81274403    -0.05180
C486        C  0.36749806  0.25245063  0.81410325    -0.32610
C487        C  0.37469223  0.29781567  0.80021571     0.36640
C488        C  0.41849629  0.30850230  0.78533311    -0.05540
C489        C  0.45487901  0.27370303  0.78472137    -0.32510
C490        C  0.44743516  0.22790282  0.79808631     0.36550
H491        H  0.33347930  0.24478923  0.82565899     0.16920
O492        O  0.33969456  0.33215362  0.80264495    -0.60000
H493        H  0.48916255  0.28209571  0.77372450     0.16930
O494        O  0.48238805  0.19360573  0.79522168    -0.60100
H495        H  0.50699891  0.20190016  0.81149257     0.43930
H496        H  0.31929797  0.32809080  0.78339494     0.43880
C497        C  0.28562764  0.08498297  0.81102617    -0.05180
C498        C  0.27578622  0.08943194  0.77822105    -0.32610
C499        C  0.22871689  0.08668591  0.76656652     0.36640
C500        C  0.19058158  0.07780852  0.78770953    -0.05540
C501        C  0.20070261  0.07021347  0.82023400    -0.32510
C502        C  0.24776789  0.07407562  0.83200563     0.36550
H503        H  0.30466184  0.09750777  0.76170710     0.16920
O504        O  0.22068616  0.09161195  0.73445498    -0.60000
H505        H  0.17174940  0.06271200  0.83679070     0.16930
O506        O  0.25574673  0.07090989  0.86421560    -0.60100
H507        H  0.25772144  0.03591729  0.86893239     0.43930
H508        H  0.22236000  0.12676576  0.73013890     0.43880
C509        C  0.89357635  0.23603303  0.83974179    -0.05180
C510        C  0.93646799  0.23441929  0.82238535    -0.32610
C511        C  0.94896969  0.19299575  0.80557255     0.36640
C512        C  0.91872550  0.15190080  0.80633360    -0.05540
C513        C  0.87775806  0.15213949  0.82561143    -0.32510
C514        C  0.86500589  0.19382538  0.84220626     0.36550
H515        H  0.95903278  0.26627224  0.82031511     0.16920
O516        O  0.99084694  0.19302380  0.78836351    -0.60000
H517        H  0.85448130  0.12070481  0.82667699     0.16930
O518        O  0.82352056  0.19355749  0.85976234    -0.60100
H519        H  0.83398659  0.18726233  0.88201809     0.43930
H520        H  0.98465883  0.21407084  0.76959687     0.43880
C521        C  0.76464831  0.35917167  0.83797844    -0.05180
C522        C  0.75952124  0.40377224  0.82245540    -0.32610
C523        C  0.71657880  0.41558742  0.80690057     0.36640
C524        C  0.67776972  0.38256862  0.80664157    -0.05540
C525        C  0.68131473  0.33966676  0.82416619    -0.32510
C526        C  0.72425392  0.32798688  0.84001722     0.36550
H527        H  0.78966982  0.42858964  0.82083816     0.16920
O528        O  0.71304895  0.45924430  0.79147987    -0.60000
H529        H  0.65156660  0.31424307  0.82439133     0.16930
O530        O  0.72683598  0.28527902  0.85656146    -0.60100
H531        H  0.72103191  0.29382484  0.87911144     0.43930
H532        H  0.73338695  0.45654519  0.77222082     0.43880
C533        C  0.61063241  0.65243325  0.78341244    -0.05180
C534        C  0.61928544  0.68971358  0.76148758    -0.32610
C535        C  0.62413786  0.73713645  0.77190221     0.36640
C536        C  0.62147586  0.74743012  0.80467190    -0.05540
C537        C  0.61119565  0.71033236  0.82644628    -0.32510
C538        C  0.60580015  0.66301291  0.81601168     0.36550
H539        H  0.62183078  0.68215593  0.73626921     0.16920
O540        O  0.63305882  0.77306280  0.75004874    -0.60000
H541        H  0.60995243  0.71765222  0.85175657     0.16930
O542        O  0.59748787  0.62709490  0.83799416    -0.60100
H543        H  0.62976749  0.61466814  0.84374657     0.43930
H544        H  0.60140530  0.78822605  0.74598850     0.43880
C545        C  0.75553592  0.86220964  0.81434527    -0.05180
C546        C  0.76517721  0.90914164  0.80360947    -0.32610
C547        C  0.81048390  0.92129935  0.79165295     0.36640
C548        C  0.84651047  0.88600216  0.78986497    -0.05540
C549        C  0.83721652  0.83923409  0.80078874    -0.32510
C550        C  0.79215865  0.82721902  0.81331422     0.36550
H551        H  0.73717276  0.93609866  0.80373807     0.16920
O552        O  0.81864929  0.96719809  0.78044388    -0.60000
H553        H  0.86532823  0.81239094  0.80046488     0.16930
O554        O  0.78464508  0.78182301  0.82563388    -0.60100
H555        H  0.78552401  0.75979310  0.80715279     0.43930
H556        H  0.82258487  0.98735514  0.79970161     0.43880
C557        C  0.48919461  0.01930065  0.92807815    -0.05180
C558        C  0.46638826  0.99277883  0.90388078    -0.32610
C559        C  0.44116540  0.01620203  0.87912704     0.36640
C560        C  0.43695737  0.06707861  0.87873864    -0.05540
C561        C  0.46149168  0.09323435  0.90238654    -0.32510
C562        C  0.48763855  0.07002580  0.92646284     0.36550
H563        H  0.46661557  0.95378643  0.90477366     0.16920
O564        O  0.42050756  0.98879633  0.85567990    -0.60000
H565        H  0.45921119  0.13211367  0.90312561     0.16930
O566        O  0.51143204  0.09739741  0.94869311    -0.60100
H567        H  0.48593977  0.11243616  0.96167578     0.43930
H568        H  0.44454373  0.98825294  0.83829939     0.43880
C569        C  0.56066791  0.93926286  0.92791014    -0.05180
C570        C  0.55775034  0.88884874  0.92669892    -0.32610
C571        C  0.58009288  0.86320302  0.90249768     0.36640
C572        C  0.60532486  0.88805178  0.87827811    -0.05540
C573        C  0.60687548  0.93876763  0.87886307    -0.32510
C574        C  0.58506135  0.96441250  0.90354814     0.36550
H575        H  0.54002817  0.86896952  0.94568703     0.16920
O576        O  0.58077977  0.81382552  0.90443836    -0.60000
H577        H  0.62619938  0.95859631  0.86057897     0.16930
O578        O  0.59134030  0.01339401  0.90518169    -0.60100
H579        H  0.57263157  0.02689001  0.88706398     0.43930
H580        H  0.54729215  0.80319741  0.89999010     0.43880
C581        C  0.05443495  0.43581245  0.48770490    -0.05180
C582        C  0.08357094  0.45881456  0.51041323    -0.32610
C583        C  0.11173036  0.43159426  0.53178044     0.36640
C584        C  0.11187648  0.38059410  0.52999118    -0.05540
C585        C  0.07926121  0.35825263  0.50903258    -0.32510
C586        C  0.05036586  0.38527319  0.48850742     0.36550
H587        H  0.08705690  0.49770477  0.51012042     0.16920
O588        O  0.13999116  0.45536092  0.55348717    -0.60000
H589        H  0.07781726  0.31944464  0.50694046     0.16930
O590        O  0.01977950  0.36185923  0.46792256    -0.60100
H591        H  0.04075169  0.34464962  0.45276870     0.43930
H592        H  0.12121387  0.45498815  0.57352287     0.43880
C593        C  0.92957277  0.57771153  0.52968550    -0.05180
C594        C  0.92881157  0.52679850  0.53098674    -0.32610
C595        C  0.95636004  0.49908091  0.50978961     0.36640
C596        C  0.98673971  0.52200667  0.48744430    -0.05540
C597        C  0.98969960  0.57250713  0.48758403    -0.32510
C598        C  0.96114546  0.60022160  0.50770536     0.36550
H599        H  0.90548379  0.50828234  0.54773141     0.16920
O600        O  0.95109283  0.44994142  0.50991360    -0.60000
H601        H  0.01155395  0.59095139  0.46990532     0.16930
O602        O  0.96071529  0.64922485  0.50310837    -0.60100
H603        H  0.99290079  0.66082509  0.51005404     0.43930
H604        H  0.92434134  0.44323024  0.49485288     0.43880
C605        C  0.06113195  0.51915812  0.94037477    -0.05180
C606        C  0.11140492  0.51522841  0.93967732    -0.32610
C607        C  0.13945870  0.54372282  0.91925767     0.36640
C608        C  0.11738232  0.57609749  0.89762722    -0.05540
C609        C  0.06658968  0.57754688  0.89673418    -0.32510
C610        C  0.03859269  0.55010035  0.91822806     0.36550
H611        H  0.12948942  0.49271023  0.95715218     0.16920
O612        O  0.18847629  0.54335029  0.92325282    -0.60000
H613        H  0.04846409  0.60147067  0.88017455     0.16930
O614        O  0.98968705  0.55608185  0.91865116    -0.60100
H615        H  0.98403256  0.58260153  0.93384405     0.43930
H616        H  0.19900587  0.51125450  0.91587080     0.43880
C617        C  0.92031723  0.39576469  0.89564155    -0.05180
C618        C  0.89734801  0.42612455  0.91743086    -0.32610
C619        C  0.92362617  0.45434183  0.93882463     0.36640
C620        C  0.97419626  0.45196670  0.93977169    -0.05540
C621        C  0.99778004  0.42436534  0.91679388    -0.32510
C622        C  0.97132665  0.39719524  0.89445024     0.36550
H623        H  0.85855880  0.42641088  0.91935331     0.16920
O624        O  0.89939492  0.48266943  0.96000259    -0.60000
H625        H  0.03663200  0.42178607  0.91724296     0.16930
O626        O  0.99591311  0.37147525  0.87212552    -0.60100
H627        H  0.99623965  0.39224818  0.85279414     0.43930
H628        H  0.88327296  0.45999727  0.97498557     0.43880
C629        C  0.55579713  0.01896894  0.49970163    -0.05180
C630        C  0.55498357  0.06953729  0.50009941    -0.32610
C631        C  0.57989507  0.09576588  0.52326733     0.36640
C632        C  0.60591129  0.07158551  0.54743889    -0.05540
C633        C  0.60534104  0.02074977  0.54781445    -0.32510
C634        C  0.58098587  0.99449346  0.52402651     0.36550
H635        H  0.53706026  0.08909928  0.48109586     0.16920
O636        O  0.58224607  0.14499706  0.52022022    -0.60000
H637        H  0.62489757  0.00129504  0.56614520     0.16930
O638        O  0.58392814  0.94521424  0.52394682    -0.60100
H639        H  0.61326600  0.93793974  0.51157848     0.43930
H640        H  0.54940664  0.15660927  0.52498907     0.43880
C641        C  0.47966023  0.93813697  0.49720395    -0.05180
C642        C  0.47276657  0.88786389  0.49781569    -0.32610
C643        C  0.44529726  0.86477120  0.52112289     0.36640
C644        C  0.42621604  0.89112772  0.54660922    -0.05540
C645        C  0.43285436  0.94159174  0.54645951    -0.32510
C646        C  0.45793514  0.96518465  0.52160546     0.36550
H647        H  0.48728434  0.86546528  0.47947072     0.16920
O648        O  0.43413260  0.81687080  0.51722474    -0.60000
H649        H  0.41783428  0.96304157  0.56535985     0.16930
O650        O  0.45902633  0.01453390  0.52090479    -0.60100
H651        H  0.43348803  0.02402044  0.50557158     0.43930
H652        H  0.46512182  0.79944786  0.51866509     0.43880
C653        C  0.42748868  0.06845161  0.02865732    -0.05180
C654        C  0.40518195  0.03573926  0.00780184    -0.32610
C655        C  0.43213836  0.00660846  0.98781368     0.36640
C656        C  0.48262092  0.01064386  0.98733463    -0.05540
C657        C  0.50558352  0.03960906  0.01013243    -0.32510
C658        C  0.47840813  0.06785935  0.03106079     0.36550
H659        H  0.36644212  0.03445974  0.00530150     0.16920
O660        O  0.40869826  0.97612443  0.96721550    -0.60000
H661        H  0.54441853  0.04303173  0.01017864     0.16930
O662        O  0.50218328  0.09570272  0.05295900    -0.60100
H663        H  0.50173070  0.07652717  0.07299343     0.43930
H664        H  0.39165638  0.99723027  0.95173971     0.43880
C665        C  0.42117602  0.31135749  0.11787662    -0.05180
C666        C  0.40551103  0.31552160  0.08605707    -0.32610
C667        C  0.39476930  0.27410657  0.06814327     0.36640
C668        C  0.40084432  0.22809310  0.08183074    -0.05540
C669        C  0.41784700  0.22393092  0.11300268    -0.32510
C670        C  0.42722789  0.26458563  0.13116938     0.36550
H671        H  0.40052911  0.35075149  0.07533408     0.16920
O672        O  0.37669709  0.27893264  0.03786619    -0.60000
H673        H  0.42166397  0.18861605  0.12393205     0.16930
O674        O  0.44245799  0.25764639  0.16199400    -0.60100
H675        H  0.41260325  0.25410065  0.17468924     0.43930
H676        H  0.40503709  0.27677914  0.02369466     0.43880
C677        C  0.06218989  0.44365671  0.42852125    -0.05180
C678        C  0.03593364  0.41941780  0.40480172    -0.32610
C679        C  0.05962170  0.39487857  0.38023860     0.36640
C680        C  0.11055332  0.39360634  0.37926732    -0.05540
C681        C  0.13637752  0.41979894  0.40226967    -0.32510
C682        C  0.11282481  0.44456227  0.42649705     0.36550
H683        H  0.99705123  0.41783926  0.40605612     0.16920
O684        O  0.03248862  0.37187436  0.35757449    -0.60000
H685        H  0.17532860  0.41979340  0.40232901     0.16930
O686        O  0.13974783  0.46959848  0.44837853    -0.60100
H687        H  0.15600487  0.44475414  0.46161144     0.43930
H688        H  0.02959694  0.39536406  0.33975487     0.43880
C689        C  0.35097151  0.37875963  0.28562894    -0.05180
C690        C  0.34059341  0.38787657  0.31778594    -0.32050
C691        C  0.29367988  0.38318302  0.32948673     0.36640
C692        C  0.25605010  0.36979315  0.30880919    -0.05540
C693        C  0.26613550  0.36293918  0.27633475    -0.32510
C694        C  0.31313277  0.36672993  0.26476812     0.36550
H695        H  0.36926379  0.39747923  0.33416758     0.16920
O696        O  0.28570207  0.38821643  0.36150895    -0.60000
H697        H  0.23752213  0.35289990  0.26001864     0.16930
O698        O  0.32128880  0.35999227  0.23292815    -0.60100
H699        H  0.32117222  0.32456419  0.23003541     0.43930
H700        H  0.28349223  0.42343234  0.36494538     0.43880
C701        C  0.62687530  0.06658111  0.39941932    -0.05180
C702        C  0.57628362  0.06850038  0.39690057    -0.32610
C703        C  0.54652100  0.04241289  0.41795254     0.36640
C704        C  0.56693030  0.01159558  0.44106400    -0.05540
C705        C  0.61713570  0.00688229  0.44198832    -0.32510
C706        C  0.64701476  0.03441600  0.42206707     0.36550
H707        H  0.55950009  0.09198415  0.37946762     0.16920
O708        O  0.49788239  0.04998128  0.41712184    -0.60000
H709        H  0.63361477  0.98460081  0.46026321     0.16930
O710        O  0.69570911  0.03328144  0.42746827    -0.60100
H711        H  0.70614514  0.00087597  0.42062264     0.43930
H712        H  0.49260289  0.07916321  0.43008100     0.43880
C713        C  0.62533233  0.30916563  0.30820486    -0.05180
C714        C  0.66594424  0.31060385  0.32809987    -0.32610
C715        C  0.68032840  0.26934598  0.34519567     0.36640
C716        C  0.65363362  0.22603013  0.34277320    -0.05540
C717        C  0.61123398  0.22576399  0.32460214    -0.32510
C718        C  0.59724157  0.26658254  0.30719003     0.36550
H719        H  0.68774200  0.34304916  0.32925869     0.16920
O720        O  0.72142892  0.27122711  0.36332368    -0.60000
H721        H  0.59018438  0.19293146  0.32245165     0.16930
O722        O  0.55596021  0.26448651  0.28916837    -0.60100
H723        H  0.56359914  0.24336557  0.27094133     0.43930
H724        H  0.71031239  0.27753782  0.38530992     0.43880
C725        C  0.05598570  0.52268688  0.99972496    -0.05180
C726        C  0.05670516  0.57317236  0.00144174    -0.32610
C727        C  0.08337460  0.59721554  0.02473638     0.36640
C728        C  0.10837801  0.57094362  0.04848642    -0.05540
C729        C  0.10640656  0.52015487  0.04740731    -0.32510
C730        C  0.08122438  0.49604772  0.02300887     0.36550
H731        H  0.03870928  0.59437381  0.98323912     0.16920
O732        O  0.08694644  0.64644967  0.02268312    -0.60000
H733        H  0.12538304  0.49888380  0.06509301     0.16930
O734        O  0.08465344  0.44693601  0.02071182    -0.60100
H735        H  0.06657041  0.43375369  0.03918367     0.43930
H736        H  0.11675462  0.65290196  0.01042005     0.43880
C737        C  0.35375798  0.57225027  0.13826650    -0.05180
C738        C  0.31692283  0.57934328  0.16028843    -0.32610
C739        C  0.26945598  0.58477398  0.14995382     0.36640
C740        C  0.25844926  0.58482027  0.11706700    -0.05540
C741        C  0.29506510  0.57600806  0.09508852    -0.32510
C742        C  0.34249968  0.56955192  0.10551746     0.36550
H743        H  0.32483206  0.58008570  0.18558200     0.16920
O744        O  0.23410348  0.59158442  0.17214093    -0.60000
H745        H  0.28731726  0.57647314  0.06976607     0.16930
O746        O  0.37787512  0.56220041  0.08343366    -0.60100
H747        H  0.39097542  0.59471665  0.07848038     0.43930
H748        H  0.21871375  0.55952423  0.17504354     0.43880
C749        C  0.19030496  0.08240192  0.12059264    -0.05180
C750        C  0.18993802  0.12247354  0.10015338    -0.32610
C751        C  0.23085820  0.13454543  0.08229048     0.36640
C752        C  0.27287066  0.10636615  0.08491945    -0.05540
C753        C  0.27180552  0.06451287  0.10381156    -0.32510
C754        C  0.23105761  0.05242289  0.12154032     0.36550
H755        H  0.15853806  0.14531889  0.09887659     0.16920
O756        O  0.22985946  0.17463964  0.06301023    -0.60000
H757        H  0.30344813  0.04217006  0.10610369     0.16930
O758        O  0.23129442  0.01102963  0.13966823    -0.60100
H759        H  0.25297761  0.01790096  0.15793476     0.43930
H760        H  0.22219384  0.16239141  0.04143130     0.43880
C761        C  0.12679607  0.14681431  0.29228799    -0.05180
C762        C  0.13110820  0.15562617  0.32508894    -0.32610
C763        C  0.13562820  0.20269678  0.33646089     0.36640
C764        C  0.13486034  0.24167575  0.31491542    -0.05540
C765        C  0.12945026  0.23278710  0.28214886    -0.32510
C766        C  0.12567593  0.18572256  0.27076283     0.36550
H767        H  0.13136361  0.12579467  0.34190575     0.16920
O768        O  0.14367917  0.21006287  0.36831463    -0.60000
H769        H  0.12939209  0.26256300  0.26528879     0.16930
O770        O  0.11867010  0.17825587  0.23881463    -0.60100
H771        H  0.15142295  0.17632852  0.22966607     0.43930
H772        H  0.11124220  0.21137828  0.37798941     0.43880
C773        C  0.77930479  0.10073518  0.33829974    -0.05180
C774        C  0.82275711  0.12482625  0.34533389    -0.32610
C775        C  0.86540038  0.11307139  0.32938397     0.36640
C776        C  0.86457363  0.07748463  0.30578456    -0.05540
C777        C  0.82149133  0.05216646  0.29984960    -0.32510
C778        C  0.77924186  0.06340665  0.31589799     0.36550
H779        H  0.82327896  0.15355897  0.36264966     0.16920
O780        O  0.90709162  0.13767605  0.33614974    -0.60000
H781        H  0.82012745  0.02409701  0.28207976     0.16930
O782        O  0.73726298  0.04021444  0.30774417    -0.60100
H783        H  0.73857840  0.00857520  0.31884633     0.43930
H784        H  0.90713640  0.16589068  0.32150215     0.43880
C785        C  0.13043595  0.80868479  0.14266561    -0.05180
C786        C  0.12498977  0.79908098  0.11002227    -0.32610
C787        C  0.12959786  0.75225357  0.09840534     0.36640
C788        C  0.13915045  0.71403568  0.11963951    -0.05540
C789        C  0.14338326  0.72351112  0.15239679    -0.32510
C790        C  0.13946447  0.77043115  0.16394790     0.36550
H791        H  0.11787546  0.82820732  0.09334791     0.16920
O792        O  0.12785215  0.74473678  0.06615638    -0.60000
H793        H  0.15072843  0.69440154  0.16903880     0.16930
O794        O  0.14250576  0.77809098  0.19612333    -0.60100
H795        H  0.17741562  0.77811202  0.20107657     0.43930
H796        H  0.09312553  0.74343681  0.06070627     0.43880
C797        C  0.98224844  0.44208792  0.99876839    -0.05180
C798        C  0.98232659  0.39151497  0.99815038    -0.32610
C799        C  0.95760253  0.36403735  0.02089320     0.36640
C800        C  0.93297933  0.38687954  0.04587062    -0.05540
C801        C  0.93433146  0.43764078  0.04723806    -0.32510
C802        C  0.95835202  0.46524003  0.02383462     0.36550
H803        H  0.99950860  0.37304008  0.97864935     0.16920
O804        O  0.95396498  0.31516841  0.01662684    -0.60000
H805        H  0.91563169  0.45613113  0.06607784     0.16930
O806        O  0.95464618  0.51447162  0.02410836    -0.60100
H807        H  0.97421483  0.52514535  0.04259948     0.43930
H808        H  0.98683589  0.30248438  0.02022900     0.43880
C809        C  0.90852229  0.23736949  0.11399469    -0.05180
C810        C  0.87305446  0.20077690  0.11515732    -0.32610
C811        C  0.88308637  0.15558941  0.12816784     0.36640
C812        C  0.92960268  0.14560061  0.13899153    -0.05540
C813        C  0.96559921  0.18121771  0.13707995    -0.32510
C814        C  0.95526662  0.22713509  0.12498509     0.36550
H815        H  0.83712600  0.20732994  0.10608680     0.16920
O816        O  0.84793023  0.12067860  0.12865768    -0.60000
H817        H  0.00176316  0.17350579  0.14530861     0.16930
O818        O  0.99025872  0.26220800  0.12553332    -0.60100
H819        H  0.01315022  0.25347669  0.10849344     0.43930
H820        H  0.83109730  0.12493144  0.14922115     0.43880
C821        C  0.78168062  0.35825506  0.11017443    -0.05180
C822        C  0.77354303  0.40198011  0.12552435    -0.32610
C823        C  0.72890915  0.41109165  0.13939389     0.36640
C824        C  0.69223698  0.37581504  0.13851894    -0.05540
C825        C  0.69996006  0.33247606  0.12278648    -0.32510
C826        C  0.74425744  0.32360730  0.10843425     0.36550
H827        H  0.80218796  0.42846992  0.12751897     0.16920
O828        O  0.72175354  0.45401557  0.15459014    -0.60000
H829        H  0.67117255  0.30612892  0.12077665     0.16930
O830        O  0.75050790  0.28154240  0.09200257    -0.60100
H831        H  0.75102198  0.25559562  0.10838863     0.43930
H832        H  0.71503757  0.47773721  0.13736837     0.43880
C833        C  0.43207372  0.88277235  0.39397531    -0.05180
C834        C  0.47907304  0.86939730  0.40398204    -0.32610
C835        C  0.50691765  0.89869127  0.42434324     0.36640
C836        C  0.48683215  0.94042630  0.43724139    -0.05540
C837        C  0.44305354  0.95669750  0.42496481    -0.32510
C838        C  0.41763879  0.93036529  0.40199751     0.36550
H839        H  0.49460506  0.83542848  0.39759091     0.16920
O840        O  0.55219699  0.88451507  0.43363003    -0.60000
H841        H  0.42777524  0.98978408  0.43381083     0.16930
O842        O  0.37938787  0.95259643  0.38765626    -0.60100
H843        H  0.39175951  0.96448592  0.36688362     0.43930
H844        H  0.54859020  0.85204027  0.44338525     0.43880
C845        C  0.18681300  0.86338170  0.30886843    -0.05180
C846        C  0.19046996  0.86882536  0.34212160    -0.32610
C847        C  0.23319737  0.85641423  0.35843570     0.36640
C848        C  0.27247656  0.83788269  0.34145877    -0.05540
C849        C  0.26811930  0.83183629  0.30842029    -0.32510
C850        C  0.22603336  0.84379802  0.29228346     0.36550
H851        H  0.16096162  0.88411995  0.35530819     0.16920
O852        O  0.23584320  0.86150902  0.39085146    -0.60000
H853        H  0.29796852  0.81790537  0.29482721     0.16930
O854        O  0.22422846  0.83728818  0.25992065    -0.60100
H855        H  0.20997775  0.80476722  0.25701146     0.43930
H856        H  0.24251617  0.89621560  0.39432462     0.43880
C857        C  0.40190209  0.72288708  0.33717784    -0.05180
C858        C  0.39273834  0.71832184  0.30450703    -0.32610
C859        C  0.40060252  0.67510302  0.28892916     0.36640
C860        C  0.41941425  0.63511064  0.30569374    -0.05540
C861        C  0.42918538  0.63954413  0.33847982    -0.32510
C862        C  0.42051346  0.68325591  0.35425731     0.36550
H863        H  0.37792679  0.74833208  0.29109032     0.16920
O864        O  0.38999203  0.67258026  0.25701652    -0.60000
H865        H  0.44425375  0.60958059  0.35173291     0.16930
O866        O  0.42861093  0.68632314  0.38641293    -0.60100
H867        H  0.46238328  0.69761697  0.38852405     0.43930
H868        H  0.35680325  0.65934744  0.25591071     0.43880
C869        C  0.57020434  0.94480467  0.98707940    -0.05180
C870        C  0.54667703  0.91621126  0.01006285    -0.32610
C871        C  0.57315593  0.88843108  0.03224167     0.36640
C872        C  0.62418103  0.88738093  0.03094958    -0.05540
C873        C  0.64712607  0.91825222  0.00895203    -0.32510
C874        C  0.62087271  0.94696598  0.98768916     0.36550
H875        H  0.50779282  0.91355983  0.00986274     0.16920
O876        O  0.54856064  0.86190112  0.05460301    -0.60000
H877        H  0.68589962  0.91875631  0.00686851     0.16930
O878        O  0.64526419  0.97592232  0.96646905    -0.60100
H879        H  0.66084671  0.95368798  0.95133207     0.43930
H880        H  0.54820697  0.88227880  0.07389852     0.43880
C881        C  0.65122133  0.72625775  0.08657673    -0.05180
C882        C  0.60676191  0.72199074  0.10206373    -0.32610
C883        C  0.59329737  0.67889754  0.11722358     0.36640
C884        C  0.62444754  0.63892243  0.11717196    -0.05540
C885        C  0.66710766  0.64174401  0.09966141    -0.32510
C886        C  0.68075491  0.68508933  0.08450895     0.36550
H887        H  0.58348553  0.75297567  0.10394318     0.16920
O888        O  0.55055341  0.67703238  0.13342221    -0.60000
H889        H  0.69107231  0.61115517  0.09908304     0.16930
O890        O  0.72305282  0.68705171  0.06778596    -0.60100
H891        H  0.74901907  0.68410021  0.08395753     0.43930
H892        H  0.52766529  0.66057547  0.11887142     0.43880
C893        C  0.87050854  0.87492487  0.11731543    -0.05180
C894        C  0.83228635  0.90772967  0.11846008    -0.32610
C895        C  0.78745577  0.89691318  0.10488181     0.36640
C896        C  0.77997931  0.85239710  0.08963647    -0.05540
C897        C  0.81914883  0.82053737  0.08712350    -0.32510
C898        C  0.86402254  0.83144049  0.10099136     0.36550
H899        H  0.83650973  0.94118910  0.13135126     0.16920
O900        O  0.75012010  0.92820492  0.10926631    -0.60000
H901        H  0.81447564  0.78629847  0.07525757     0.16930
O902        O  0.90040992  0.79842256  0.09981650    -0.60100
H903        H  0.89560825  0.77731443  0.11873369     0.43930
H904        H  0.75706903  0.95611249  0.09506848     0.43880
C905        C  0.93342039  0.56348657  0.37807646    -0.05180
C906        C  0.98407864  0.56352487  0.37948152    -0.32610
C907        C  0.00859891  0.54054456  0.40459127     0.36640
C908        C  0.98245952  0.51536282  0.42812660    -0.05540
C909        C  0.93210988  0.51403650  0.42615538    -0.32510
C910        C  0.90759245  0.53876107  0.40214459     0.36550
H911        H  0.00486829  0.58249254  0.36152778     0.16920
O912        O  0.05751047  0.54613825  0.40731947    -0.60000
H913        H  0.91141221  0.49601404  0.44459626     0.16930
O914        O  0.85837508  0.54077736  0.40371836    -0.60100
H915        H  0.85133764  0.57098179  0.41521859     0.43930
H916        H  0.07128961  0.52891307  0.38890090     0.43880
C917        C  0.78965867  0.58781963  0.30690962    -0.05180
C918        C  0.77760293  0.59221607  0.27444042    -0.32610
C919        C  0.73020587  0.58552928  0.26409736     0.36640
C920        C  0.69438587  0.57352117  0.28631293    -0.05540
C921        C  0.70645598  0.56872520  0.31866815    -0.32510
C922        C  0.75361922  0.57600373  0.32909306     0.36550
H923        H  0.80501675  0.60145919  0.25711784     0.16920
O924        O  0.71976324  0.58863310  0.23218871    -0.60000
H925        H  0.67904019  0.55976499  0.33605333     0.16930
O926        O  0.76351242  0.57446494  0.36113992    -0.60100
H927        H  0.76469342  0.53972746  0.36677509     0.43930
H928        H  0.71317457  0.62320287  0.22810023     0.43880
C929        C  0.91643958  0.71138882  0.30874129    -0.05180
C930        C  0.92344526  0.74823005  0.33091066    -0.32610
C931        C  0.92988225  0.79576319  0.32055192     0.36640
C932        C  0.92907417  0.80669422  0.28772320    -0.05540
C933        C  0.92347267  0.76971733  0.26556196    -0.32510
C934        C  0.91790223  0.72216973  0.27586940     0.36550
H935        H  0.92176426  0.74046388  0.35622576     0.16920
O936        O  0.93551241  0.83149172  0.34268006    -0.60000
H937        H  0.92413588  0.77758774  0.24023861     0.16930
O938        O  0.91261455  0.68648188  0.25367529    -0.60100
H939        H  0.94495418  0.67197687  0.25172638     0.43930
H940        H  0.90266044  0.84390238  0.34639570     0.43880
loop_ 
_geom_bond_atom_site_label_1 
_geom_bond_atom_site_label_2 
_geom_bond_distance 
_geom_bond_site_symmetry_2 
_ccdc_geom_bond_type 
C1            C2   1.390       .  A
C1            C6   1.402       .  A
C1          C917   1.474       .  S
C2            C3   1.393       .  A
C2            H7   1.085       .  S
C3            C4   1.403       .  A
C3          C929   1.470       .  S
C4            C5   1.411       .  A
C4            H8   1.083       .  S
C5            C6   1.410       .  A
C5          C905   1.491       .  S
C6            H9   1.082       .  S
C10          C11   1.401       .  A
C10          C15   1.408       .  A
C10         C896   1.495       .  S
C11          C12   1.403       .  A
C11          H16   1.083       .  S
C12          C13   1.411       .  A
C12         C881   1.492       .  S
C13          C14   1.415       .  A
C13          H17   1.082       .  S
C14          C15   1.415       .  A
C14         C872   1.509       .  S
C15          H18   1.081       .  S
C19          C20   1.391       .  A
C19          C24   1.407       .  A
C19         C857   1.481       .  S
C20          C21   1.389       .  A
C20          H25   1.086       .  S
C21          C22   1.405       .  A
C21         C848   1.487       .  S
C22          C23   1.428       .  A
C22          H26   1.071       .  S
C23          C24   1.428       .  A
C23         C833   1.533       .  S
C24          H27   1.077       .  S
C28          C29   1.406       .  A
C28          C33   1.391       .  A
C28         C809   1.483       .  S
C29          C30   1.414       .  A
C29          H34   1.080       .  S
C30          C31   1.414       .  A
C30         C800   1.497       .  S
C31          C32   1.406       .  A
C31          H35   1.083       .  S
C32          C33   1.389       .  A
C32         C821   1.475       .  S
C33          H36   1.085       .  S
C37          C74   1.464       .  S
C37         C932   1.462       .  S
C37          N55   1.342       .  A
N38          N55   1.318       .  A
N38          N60   1.323       .  A
N38         Co75   2.052   1_655  S
C39          C77   1.443       .  S
C39          H84   1.081   1_655  S
C39          N64   1.330       .  A
H40          C81   1.081       .  S
C41          C45   1.470       .  S
C41          H70   1.081       .  S
C41          N65   1.346       .  A
Co42         N60   2.109       .  S
Co42         N50   2.049       .  S
Co42         N82   2.048   1_565  S
Co42         N58   2.115   1_565  S
Co42        Cl86   2.408   1_655  S
N43          C81   1.351       .  A
N43          N50   1.315       .  A
N43         Co44   2.102   1_655  S
Co44         N47   2.054       .  S
Co44         N64   2.045   1_465  S
Co44         N51   2.087   1_565  S
Co44        Cl86   2.479       .  S
C45         C785   1.473       .  S
C45          N83   1.343       .  A
N46          N53   1.315       .  A
N46          N76   1.316       .  A
N46         Co79   2.052       .  S
N47          N65   1.324       .  A
N47          N83   1.319       .  A
N48          C77   1.355       .  A
N48          N58   1.327       .  A
H49          C74   1.081       .  S
N50          N71   1.318       .  A
N51          N69   1.314       .  A
N51          N56   1.327       .  A
C52          C80   1.455       .  S
C52         C749   1.473       .  S
C52          N56   1.353       .  A
N53          C68   1.351       .  A
N53         Co75   2.098       .  S
C54          C57   1.452       .  S
C54          H88   1.082       .  S
C54          N82   1.330       .  A
C57         C776   1.478       .  S
C57          N78   1.357       .  A
N58          N64   1.322       .  A
N59          C85   1.330       .  A
N59          N61   1.323       .  A
N59         Co75   2.048   1_545  S
N60          C74   1.342       .  A
N61          N89   1.329       .  A
N61         Co79   2.126   1_545  S
H62          C85   1.082       .  S
H63          C80   1.082       .  S
N65         Co79   2.124       .  S
N66          N78   1.330       .  A
N66          N82   1.315       .  A
N66         Co75   2.097   1_645  S
C67          C81   1.473       .  S
C67         C893   1.479       .  S
C67          N71   1.343       .  A
C68          C87   1.473       .  S
C68          H72   1.081       .  S
N69          C80   1.333       .  A
N69         Co79   2.052   1_545  S
C73          C85   1.443       .  S
C73         C761   1.467       .  S
C73          N89   1.358       .  A
Co75        Cl86   2.483       .  S
N76          C87   1.342       .  A
C77         C812   1.461       .  S
Co79        Cl86   2.406       .  S
C87         C845   1.484       .  S
C90          C91   1.393       .  A
C90          C95   1.407       .  A
C90         C740   1.478       .  S
C91          C92   1.391       .  A
C91          H96   1.085       .  S
C92          C93   1.404       .  A
C92         C788   1.479       .  S
C93          C94   1.415       .  A
C93          H97   1.082       .  S
C94          C95   1.415       .  A
C94         C728   1.500       .  S
C95          H98   1.083       .  S
C99         C100   1.399       .  A
C99         C104   1.404       .  A
C99         C773   1.481       .  S
C100        C101   1.401       .  A
C100        H105   1.084       .  S
C101        C102   1.409       .  A
C101        C716   1.487       .  S
C102        C103   1.414       .  A
C102        H106   1.083       .  S
C103        C104   1.410       .  A
C103        C701   1.504       .  S
C104        H107   1.081       .  S
C108        C109   1.416       .  A
C108        C113   1.417       .  A
C108        C680   1.502       .  S
C109        C110   1.407       .  A
C109        H114   1.082       .  S
C110        C111   1.390       .  A
C110        C764   1.474       .  S
C111        C112   1.392       .  A
C111        H115   1.085       .  S
C112        C113   1.407       .  A
C112        C692   1.482       .  S
C113        H116   1.083       .  S
C117        C118   1.412       .  A
C117        C122   1.413       .  A
C117        C653   1.501       .  S
C118        C119   1.405       .  A
C118        H123   1.082       .  S
C119        C120   1.397       .  A
C119        C752   1.484       .  S
C120        C121   1.396       .  A
C120        H124   1.085       .  S
C121        C122   1.405       .  A
C121        C668   1.471       .  S
C122        H125   1.082       .  S
C126        C163   1.454       .  S
C126        C713   1.483       .  S
C126        N144   1.357       .  A
N127        N144   1.331       .  A
N127        N149   1.314       .  A
N127       Co164   2.101       .  S
C128        C166   1.475       .  S
C128        H173   1.081       .  S
C128        N153   1.351       .  A
H129        C170   1.082       .  S
C130        C134   1.453       .  S
C130        H159   1.082       .  S
C130        N154   1.333       .  A
Co131       N149   2.053       .  S
Co131       N139   2.129       .  S
Co131       N171   2.124       .  S
Co131       N147   2.044       .  S
Co131      Cl175   2.402       .  S
N132        C170   1.328       .  A
N132        N139   1.324       .  A
N132       Co133   2.043       .  S
Co133       N136   2.097       .  S
Co133       N153   2.095       .  S
Co133       N140   2.052       .  S
Co133      Cl175   2.486       .  S
C134        C884   1.480       .  S
C134        N172   1.357       .  A
N135        N142   1.324       .  A
N135        N165   1.327       .  A
N135       Co168   2.119       .  S
N136        N154   1.313       .  A
N136        N172   1.330       .  A
N137        C166   1.340       .  A
N137        N147   1.314       .  A
H138        C163   1.082       .  S
N139        N160   1.329       .  A
N140        N158   1.323       .  A
N140        N145   1.319       .  A
C141        C169   1.468       .  S
C141        C737   1.470       .  S
C141        N145   1.342       .  A
N142        C157   1.329       .  A
N142       Co164   2.048       .  S
C143        C146   1.471       .  S
C143        H177   1.081       .  S
C143        N171   1.346       .  A
C146        C689   1.477       .  S
C146        N167   1.343       .  A
N147        N153   1.314       .  A
N148        C174   1.351       .  A
N148        N150   1.315       .  A
N148       Co164   2.094       .  S
N149        C163   1.334       .  A
N150        N178   1.315       .  A
N150       Co168   2.044       .  S
H151        C174   1.081       .  S
H152        C169   1.081       .  S
N154       Co168   2.050       .  S
N155        N167   1.319       .  A
N155        N171   1.323       .  A
N155       Co164   2.057       .  S
C156        C170   1.440       .  S
C156        C824   1.461       .  S
C156        N160   1.357       .  A
C157        C176   1.446       .  S
C157        H161   1.082       .  S
N158        C169   1.345       .  A
N158       Co168   2.121       .  S
C162        C174   1.473       .  S
C162        C860   1.482       .  S
C162        N178   1.341       .  A
Co164      Cl175   2.487       .  S
N165        C176   1.355       .  A
C166        C665   1.488       .  S
Co168      Cl175   2.400       .  S
C176        C920   1.465       .  S
C179        C180   1.373       .  D
C179        C641   1.512       .  S
C179        C836   1.497       .  S
C180        C629   1.497   1_565  S
C180        C704   1.498   1_565  S
C181        C182   1.370   1_655  D
C181        C620   1.497       .  S
C181        C797   1.498       .  S
C182        C605   1.498       .  S
C182        C725   1.498       .  S
C183        C184   1.368       .  D
C183        C581   1.488       .  S
C183        C677   1.504       .  S
C184        C596   1.503   1_455  S
C184        C908   1.490   1_455  S
C185        C186   1.368       .  D
C185        C557   1.504   1_565  S
C185        C656   1.491   1_565  S
C186        C569   1.490       .  S
C186        C869   1.502       .  S
C187        C188   1.405       .  A
C187        C192   1.392       .  A
C187        C545   1.474       .  S
C188        C189   1.410       .  A
C188        H193   1.083       .  S
C189        C190   1.409       .  A
C189        C572   1.488       .  S
C190        C191   1.401       .  A
C190        H194   1.082       .  S
C191        C192   1.392       .  A
C191        C536   1.470       .  S
C192        H195   1.084       .  S
C196        C197   1.406       .  A
C196        C201   1.399       .  A
C196        C521   1.489       .  S
C197        C198   1.414       .  A
C197        H202   1.082       .  S
C198        C199   1.415       .  A
C198        C617   1.506       .  S
C199        C200   1.410       .  A
C199        H203   1.082       .  S
C200        C201   1.400       .  A
C200        C509   1.487       .  S
C201        H204   1.084       .  S
C205        C206   1.417       .  A
C205        C210   1.418       .  A
C205        C560   1.503       .  S
C206        C207   1.408       .  A
C206        H211   1.082       .  S
C207        C208   1.392       .  A
C207        C497   1.479       .  S
C208        C209   1.389       .  A
C208        H212   1.085       .  S
C209        C210   1.405       .  A
C209        C485   1.482       .  S
C210        H213   1.082       .  S
C214        C215   1.410       .  A
C214        C219   1.403       .  A
C214        C473   1.489       .  S
C215        C216   1.412       .  A
C215        H220   1.083       .  S
C216        C217   1.411       .  A
C216        C608   1.504       .  S
C217        C218   1.406       .  A
C217        H221   1.081       .  S
C218        C219   1.400       .  A
C218        C461   1.490       .  S
C219        H222   1.083       .  S
C223        C224   1.410       .  A
C223        C228   1.410       .  A
C223        C584   1.498       .  S
C224        C225   1.408       .  A
C224        H229   1.082       .  S
C225        C226   1.401       .  A
C225        C452   1.486       .  S
C226        C227   1.398       .  A
C226        H230   1.084       .  S
C227        C228   1.403       .  A
C227        C440   1.485       .  S
C228        H231   1.082       .  S
C232        C233   1.403       .  A
C232        C237   1.390       .  A
C232        C416   1.475       .  S
C233        C234   1.411       .  A
C233        H238   1.082       .  S
C234        C235   1.414       .  A
C234        C632   1.498       .  S
C235        C236   1.411       .  A
C235        H239   1.083       .  S
C236        C237   1.395       .  A
C236        C428   1.484       .  S
C237        H240   1.084       .  S
C241        C278   1.465       .  S
C241        C533   1.464       .  S
C241        N259   1.341       .  A
N242        N259   1.317       .  A
N242        N264   1.324       .  A
N242       Co279   2.052       .  S
C243        C281   1.446       .  S
C243        H288   1.082       .  S
C243        N268   1.328       .  A
H244        C285   1.081       .  S
C245        C249   1.465       .  S
C245        H274   1.081       .  S
C245        N269   1.344       .  A
Co246       N264   2.113       .  S
Co246       N254   2.058       .  S
Co246       N286   2.050       .  S
Co246       N262   2.117       .  S
Co246      Cl290   2.413       .  S
N247        C285   1.350       .  A
N247        N254   1.315       .  A
N247       Co248   2.095       .  S
Co248       N251   2.058       .  S
Co248       N268   2.048       .  S
Co248       N255   2.091       .  S
Co248      Cl290   2.470       .  S
C249        C389   1.465       .  S
C249        N287   1.343       .  A
N250        N257   1.316       .  A
N250        N280   1.318       .  A
N250       Co283   2.051       .  S
N251        N269   1.324       .  A
N251        N287   1.319       .  A
N252        C281   1.357       .  A
N252        N262   1.329       .  A
H253        C278   1.081       .  S
N254        N275   1.320       .  A
N255        N273   1.314       .  A
N255        N260   1.327       .  A
C256        C284   1.455       .  S
C256        C449   1.471       .  S
C256        N260   1.354       .  A
N257        C272   1.351       .  A
N257       Co279   2.104       .  S
C258        C261   1.453       .  S
C258        H292   1.082       .  S
C258        N286   1.332       .  A
C261        C524   1.474       .  S
C261        N282   1.355       .  A
N262        N268   1.322       .  A
N263        C289   1.330       .  A
N263        N265   1.323       .  A
N263       Co279   2.048       .  S
N264        C278   1.343       .  A
N265        N293   1.330       .  A
N265       Co283   2.124       .  S
H266        C289   1.082       .  S
H267        C284   1.082       .  S
N269       Co283   2.116       .  S
N270        N282   1.329       .  A
N270        N286   1.314       .  A
N270       Co279   2.091       .  S
C271        C285   1.471       .  S
C271        C401   1.481       .  S
C271        N275   1.345       .  A
C272        C291   1.472       .  S
C272        H276   1.081       .  S
N273        C284   1.332       .  A
N273       Co283   2.049       .  S
C277        C289   1.442       .  S
C277        C488   1.464       .  S
C277        N293   1.357       .  A
Co279      Cl290   2.473       .  S
N280        C291   1.343       .  A
C281        C413   1.469       .  S
Co283      Cl290   2.421       .  S
C291        C464   1.481       .  S
C294        C295   1.413       .  A
C294        C299   1.402       .  A
C294        C404   1.493       .  S
C295        C296   1.416       .  A
C295        H300   1.082       .  S
C296        C297   1.413       .  A
C296        C593   1.509       .  S
C297        C298   1.406       .  A
C297        H301   1.081       .  S
C298        C299   1.399       .  A
C298        C377   1.490       .  S
C299        H302   1.084       .  S
C303        C304   1.409       .  A
C303        C308   1.396       .  A
C303        C365   1.481       .  S
C304        C305   1.413       .  A
C304        H309   1.082       .  S
C305        C306   1.414       .  A
C305        C644   1.500       .  S
C306        C307   1.403       .  A
C306        H310   1.079       .  S
C307        C308   1.393       .  A
C307        C392   1.487       .  S
C308        H311   1.084       .  S
C312        C349   1.454       .  S
C312        C512   1.480       .  S
C312        N330   1.355       .  A
N313        N330   1.329       .  A
N313        N335   1.315       .  A
N313       Co350   2.096   1_645  S
C314        C352   1.469       .  S
C314        H359   1.081       .  S
C314        N339   1.348       .  A
H315        C356   1.082       .  S
C316        C320   1.453       .  S
C316        H345   1.082       .  S
C316        N340   1.333       .  A
Co317       N335   2.054   1_455  S
Co317       N325   2.132   1_455  S
Co317       N357   2.122       .  S
Co317       N333   2.046       .  S
Co317      Cl361   2.412   1_545  S
N318        C356   1.329       .  A
N318        N325   1.324       .  A
N318       Co319   2.046   1_645  S
Co319       N322   2.095   1_455  S
Co319       N339   2.092   1_565  S
Co319       N326   2.048       .  S
Co319      Cl361   2.475       .  S
C320        C380   1.479       .  S
C320        N358   1.357       .  A
N321        N328   1.324       .  A
N321        N351   1.328       .  A
N321       Co354   2.120   1_655  S
N322        N340   1.314       .  A
N322        N358   1.330       .  A
N323        C352   1.342       .  A
N323        N333   1.316       .  A
H324        C349   1.082       .  S
N325        N346   1.330       .  A
N326        N344   1.323       .  A
N326        N331   1.317       .  A
C327        C355   1.472       .  S
C327        C368   1.473       .  S
C327        N331   1.341       .  A
N328        C343   1.329       .  A
N328       Co350   2.047   1_655  S
C329        C332   1.471       .  S
C329        H363   1.081       .  S
C329        N357   1.346       .  A
C332        C500   1.474       .  S
C332        N353   1.342       .  A
N333        N339   1.314       .  A
N334        C360   1.349       .  A
N334        N336   1.315       .  A
N334       Co350   2.097       .  S
N335        C349   1.334       .  A
N336        N364   1.318       .  A
N336       Co354   2.048       .  S
H337        C360   1.081       .  S
H338        C355   1.081       .  S
N340       Co354   2.053   1_655  S
N341        N353   1.318       .  A
N341        N357   1.323       .  A
N341       Co350   2.051   1_545  S
C342        C356   1.443       .  S
C342        C425   1.467       .  S
C342        N346   1.358       .  A
C343        C362   1.444       .  S
C343        H347   1.081       .  S
N344        C355   1.347       .  A
N344       Co354   2.121       .  S
C348        C360   1.470       .  S
C348        C476   1.477       .  S
C348        N364   1.343       .  A
Co350      Cl361   2.473       .  S
N351        C362   1.355       .  A
C352        C437   1.473       .  S
Co354      Cl361   2.413       .  S
C362        C548   1.462       .  S
C365        C366   1.408       .  A
C365        C370   1.406       .  A
C366        C367   1.398       .  A
C366        H371   1.084       .  S
C367        C368   1.404       .  A
C367        O372   1.371       .  S
C368        C369   1.406       .  A
C369        C370   1.398       .  A
C369        H373   1.084       .  S
C370        O374   1.372       .  S
O372        H376   0.992       .  S
O374        H375   0.992       .  S
C377        C378   1.411       .  A
C377        C382   1.408       .  A
C378        C379   1.405       .  A
C378        H383   1.083       .  S
C379        C380   1.404       .  A
C379        O384   1.371       .  S
C380        C381   1.406       .  A
C381        C382   1.399       .  A
C381        H385   1.084       .  S
C382        O386   1.372       .  S
O384        H388   0.992       .  S
O386        H387   0.992       .  S
C389        C390   1.403       .  A
C389        C394   1.400       .  A
C390        C391   1.400       .  A
C390        H395   1.084       .  S
C391        C392   1.409       .  A
C391        O396   1.372       .  S
C392        C393   1.411       .  A
C393        C394   1.396       .  A
C393        H397   1.083       .  S
C394        O398   1.372       .  S
O396        H400   0.992       .  S
O398        H399   0.992       .  S
C401        C402   1.407       .  A
C401        C406   1.404       .  A
C402        C403   1.401       .  A
C402        H407   1.084       .  S
C403        C404   1.408       .  A
C403        O408   1.372       .  S
C404        C405   1.412       .  A
C405        C406   1.406       .  A
C405        H409   1.083       .  S
C406        O410   1.371       .  S
O408        H412   0.992       .  S
O410        H411   0.992       .  S
C413        C414   1.404       .  A
C413        C418   1.405       .  A
C414        C415   1.395       .  A
C414        H419   1.084       .  S
C415        C416   1.405       .  A
C415        O420   1.372       .  S
C416        C417   1.407       .  A
C417        C418   1.400       .  A
C417        H421   1.084       .  S
C418        O422   1.371       .  S
O420        H424   0.992       .  S
O422        H423   0.992       .  S
C425        C426   1.405       .  A
C425        C430   1.400       .  A
C426        C427   1.398       .  A
C426        H431   1.084       .  S
C427        C428   1.406       .  A
C427        O432   1.372       .  S
C428        C429   1.412       .  A
C429        C430   1.398       .  A
C429        H433   1.084       .  S
C430        O434   1.372       .  S
O432        H436   0.992   1_545  S
O434        H435   0.992       .  S
C437        C438   1.399       .  A
C437        C442   1.412       .  A
C438        C439   1.404       .  A
C438        H443   1.083       .  S
C439        C440   1.415       .  A
C439        O444   1.371       .  S
C440        C441   1.401       .  A
C441        C442   1.394       .  A
C441        H445   1.083       .  S
C442        O446   1.373       .  S
O444        H448   0.992       .  S
O446        H447   0.992       .  S
C449        C450   1.404       .  A
C449        C454   1.402       .  A
C450        C451   1.397       .  A
C450        H455   1.084       .  S
C451        C452   1.409       .  A
C451        O456   1.372       .  S
C452        C453   1.410       .  A
C453        C454   1.402       .  A
C453        H457   1.083       .  S
C454        O458   1.371       .  S
O456        H460   0.992       .  S
O458        H459   0.992       .  S
C461        C462   1.401       .  A
C461        C466   1.415       .  A
C462        C463   1.398       .  A
C462        H467   1.084       .  S
C463        C464   1.413       .  A
C463        O468   1.373       .  S
C464        C465   1.401       .  A
C465        C466   1.408       .  A
C465        H469   1.083       .  S
C466        O470   1.372       .  S
O468        H472   0.992       .  S
O470        H471   0.992       .  S
C473        C474   1.402       .  A
C473        C478   1.414       .  A
C474        C475   1.399       .  A
C474        H479   1.084       .  S
C475        C476   1.412       .  A
C475        O480   1.373       .  S
C476        C477   1.400       .  A
C477        C478   1.407       .  A
C477        H481   1.083       .  S
C478        O482   1.373       .  S
O480        H484   0.992       .  S
O482        H483   0.992       .  S
C485        C486   1.410       .  A
C485        C490   1.406       .  A
C486        C487   1.397       .  A
C486        H491   1.084       .  S
C487        C488   1.400       .  A
C487        O492   1.372       .  S
C488        C489   1.404       .  A
C489        C490   1.400       .  A
C489        H493   1.084       .  S
C490        O494   1.372       .  S
O492        H496   0.992       .  S
O494        H495   0.992       .  S
C497        C498   1.407       .  A
C497        C502   1.405       .  A
C498        C499   1.397       .  A
C498        H503   1.084       .  S
C499        C500   1.405       .  A
C499        O504   1.371       .  S
C500        C501   1.407       .  A
C501        C502   1.400       .  A
C501        H505   1.084       .  S
C502        O506   1.371       .  S
O504        H508   0.992       .  S
O506        H507   0.992       .  S
C509        C510   1.401       .  A
C509        C514   1.414       .  A
C510        C511   1.401       .  A
C510        H515   1.084       .  S
C511        C512   1.413       .  A
C511        O516   1.373       .  S
C512        C513   1.400       .  A
C513        C514   1.404       .  A
C513        H517   1.084       .  S
C514        O518   1.371       .  S
O516        H520   0.992       .  S
O518        H519   0.992       .  S
C521        C522   1.402       .  A
C521        C526   1.416       .  A
C522        C523   1.398       .  A
C522        H527   1.083       .  S
C523        C524   1.411       .  A
C523        O528   1.373       .  S
C524        C525   1.399       .  A
C525        C526   1.403       .  A
C525        H529   1.084       .  S
C526        O530   1.371       .  S
O528        H532   0.992       .  S
O530        H531   0.992       .  S
C533        C534   1.400       .  A
C533        C538   1.409       .  A
C534        C535   1.396       .  A
C534        H539   1.083       .  S
C535        C536   1.409       .  A
C535        O540   1.372       .  S
C536        C537   1.400       .  A
C537        C538   1.395       .  A
C537        H541   1.084       .  S
C538        O542   1.372       .  S
O540        H544   0.992       .  S
O542        H543   0.992       .  S
C545        C546   1.400       .  A
C545        C550   1.413       .  A
C546        C547   1.396       .  A
C546        H551   1.084       .  S
C547        C548   1.409       .  A
C547        O552   1.372       .  S
C548        C549   1.396       .  A
C549        C550   1.398       .  A
C549        H553   1.084       .  S
C550        O554   1.373       .  S
O552        H556   0.992       .  S
O554        H555   0.992       .  S
C557        C558   1.406   1_545  A
C557        C562   1.410       .  A
C558        C559   1.408   1_565  A
C558        H563   1.083       .  S
C559        C560   1.418       .  A
C559        O564   1.370   1_545  S
C560        C561   1.406       .  A
C561        C562   1.398       .  A
C561        H565   1.082       .  S
C562        O566   1.373       .  S
O564        H568   0.992       .  S
O566        H567   0.992       .  S
C569        C570   1.403       .  A
C569        C574   1.407       .  A
C570        C571   1.396       .  A
C570        H575   1.084       .  S
C571        C572   1.411       .  A
C571        O576   1.373       .  S
C572        C573   1.409       .  A
C573        C574   1.404       .  A
C573        H577   1.083       .  S
C574        O578   1.372   1_565  S
O576        H580   0.992       .  S
O578        H579   0.992       .  S
C581        C582   1.403       .  A
C581        C586   1.407       .  A
C582        C583   1.407       .  A
C582        H587   1.083       .  S
C583        C584   1.418       .  A
C583        O588   1.371       .  S
C584        C585   1.405       .  A
C585        C586   1.394       .  A
C585        H589   1.082       .  S
C586        O590   1.374       .  S
O588        H592   0.992       .  S
O590        H591   0.992       .  S
C593        C594   1.414       .  A
C593        C598   1.415       .  A
C594        C595   1.413       .  A
C594        H599   1.083       .  S
C595        C596   1.410       .  A
C595        O600   1.371       .  S
C596        C597   1.404       .  A
C597        C598   1.400       .  A
C597        H601   1.084   1_655  S
C598        O602   1.373       .  S
O600        H604   0.992       .  S
O602        H603   0.992       .  S
C605        C606   1.403       .  A
C605        C610   1.409       .  A
C606        C607   1.398       .  A
C606        H611   1.084       .  S
C607        C608   1.414       .  A
C607        O612   1.372       .  S
C608        C609   1.413       .  A
C609        C610   1.410       .  A
C609        H613   1.083       .  S
C610        O614   1.371   1_455  S
O612        H616   0.992       .  S
O614        H615   0.992       .  S
C617        C618   1.407       .  A
C617        C622   1.420       .  A
C618        C619   1.397       .  A
C618        H623   1.082       .  S
C619        C620   1.408       .  A
C619        O624   1.373       .  S
C620        C621   1.404       .  A
C621        C622   1.410       .  A
C621        H625   1.083   1_655  S
C622        O626   1.370       .  S
O624        H628   0.992       .  S
O626        H627   0.992       .  S
C629        C630   1.404       .  A
C629        C634   1.408   1_545  A
C630        C631   1.398       .  A
C630        H635   1.083       .  S
C631        C632   1.412       .  A
C631        O636   1.373       .  S
C632        C633   1.411       .  A
C633        C634   1.409   1_545  A
C633        H637   1.083       .  S
C634        O638   1.371       .  S
O636        H640   0.992       .  S
O638        H639   0.992       .  S
C641        C642   1.407       .  A
C641        C646   1.415       .  A
C642        C643   1.393       .  A
C642        H647   1.075       .  S
C643        C644   1.409       .  A
C643        O648   1.374       .  S
C644        C645   1.412       .  A
C645        C646   1.412       .  A
C645        H649   1.083       .  S
C646        O650   1.370   1_565  S
O648        H652   0.992       .  S
O650        H651   0.992       .  S
C653        C654   1.406       .  A
C653        C658   1.419       .  A
C654        C655   1.394   1_554  A
C654        H659   1.082       .  S
C655        C656   1.407       .  A
C655        O660   1.374   1_545  S
C656        C657   1.403   1_556  A
C657        C658   1.408       .  A
C657        H661   1.083       .  S
C658        O662   1.370       .  S
O660        H664   0.992       .  S
O662        H663   0.992       .  S
C665        C666   1.407       .  A
C665        C670   1.420       .  A
C666        C667   1.408       .  A
C666        H671   1.083       .  S
C667        C668   1.407       .  A
C667        O672   1.370       .  S
C668        C669   1.393       .  A
C669        C670   1.390       .  A
C669        H673   1.085       .  S
C670        O674   1.372       .  S
O672        H676   0.992       .  S
O674        H675   0.992       .  S
C677        C678   1.405       .  A
C677        C682   1.411       .  A
C678        C679   1.409       .  A
C678        H683   1.083   1_455  S
C679        C680   1.417       .  A
C679        O684   1.371       .  S
C680        C681   1.405       .  A
C681        C682   1.400       .  A
C681        H685   1.083       .  S
C682        O686   1.373       .  S
O684        H688   0.992       .  S
O686        H687   0.992       .  S
C689        C690   1.407       .  A
C689        C694   1.406       .  A
C690        C691   1.401       .  A
C690        H695   1.084       .  S
C691        C692   1.406       .  A
C691        O696   1.372       .  S
C692        C693   1.407       .  A
C693        C694   1.399       .  A
C693        H697   1.084       .  S
C694        O698   1.371       .  S
O696        H700   0.992       .  S
O698        H699   0.992       .  S
C701        C702   1.411       .  A
C701        C706   1.415       .  A
C702        C703   1.406       .  A
C702        H707   1.083       .  S
C703        C704   1.408       .  A
C703        O708   1.370       .  S
C704        C705   1.403       .  A
C705        C706   1.400       .  A
C705        H709   1.084   1_545  S
C706        O710   1.372       .  S
O708        H712   0.992       .  S
O710        H711   0.992       .  S
C713        C714   1.402       .  A
C713        C718   1.413       .  A
C714        C715   1.406       .  A
C714        H719   1.083       .  S
C715        C716   1.413       .  A
C715        O720   1.371       .  S
C716        C717   1.401       .  A
C717        C718   1.400       .  A
C717        H721   1.084       .  S
C718        O722   1.373       .  S
O720        H724   0.992       .  S
O722        H723   0.992       .  S
C725        C726   1.404   1_556  A
C725        C730   1.409   1_556  A
C726        C727   1.396       .  A
C726        H731   1.084   1_554  S
C727        C728   1.414       .  A
C727        O732   1.372       .  S
C728        C729   1.412       .  A
C729        C730   1.409       .  A
C729        H733   1.083       .  S
C730        O734   1.372       .  S
O732        H736   0.992       .  S
O734        H735   0.992       .  S
C737        C738   1.399       .  A
C737        C742   1.411       .  A
C738        C739   1.396       .  A
C738        H743   1.084       .  S
C739        C740   1.413       .  A
C739        O744   1.372       .  S
C740        C741   1.401       .  A
C741        C742   1.400       .  A
C741        H745   1.084       .  S
C742        O746   1.372       .  S
O744        H748   0.992       .  S
O746        H747   0.992       .  S
C749        C750   1.399       .  A
C749        C754   1.411       .  A
C750        C751   1.402       .  A
C750        H755   1.084       .  S
C751        C752   1.414       .  A
C751        O756   1.371       .  S
C752        C753   1.402       .  A
C753        C754   1.396       .  A
C753        H757   1.083       .  S
C754        O758   1.373       .  S
O756        H760   0.992       .  S
O758        H759   0.992       .  S
C761        C762   1.405       .  A
C761        C766   1.403       .  A
C762        C763   1.399       .  A
C762        H767   1.084       .  S
C763        C764   1.405       .  A
C763        O768   1.371       .  S
C764        C765   1.406       .  A
C765        C766   1.398       .  A
C765        H769   1.084       .  S
C766        O770   1.371       .  S
O768        H772   0.992       .  S
O770        H771   0.992       .  S
C773        C774   1.408       .  A
C773        C778   1.405       .  A
C774        C775   1.406       .  A
C774        H779   1.083       .  S
C775        C776   1.405       .  A
C775        O780   1.371       .  S
C776        C777   1.407       .  A
C777        C778   1.395       .  A
C777        H781   1.083       .  S
C778        O782   1.372       .  S
O780        H784   0.992       .  S
O782        H783   0.992       .  S
C785        C786   1.405       .  A
C785        C790   1.405       .  A
C786        C787   1.399       .  A
C786        H791   1.084       .  S
C787        C788   1.406       .  A
C787        O792   1.372       .  S
C788        C789   1.406       .  A
C789        C790   1.399       .  A
C789        H793   1.084       .  S
C790        O794   1.371       .  S
O792        H796   0.992       .  S
O794        H795   0.992       .  S
C797        C798   1.404       .  A
C797        C802   1.409   1_556  A
C798        C799   1.397   1_556  A
C798        H803   1.084       .  S
C799        C800   1.412       .  A
C799        O804   1.373       .  S
C800        C801   1.411       .  A
C801        C802   1.409       .  A
C801        H805   1.083       .  S
C802        O806   1.371       .  S
O804        H808   0.992       .  S
O806        H807   0.992       .  S
C809        C810   1.411       .  A
C809        C814   1.407       .  A
C810        C811   1.394       .  A
C810        H815   1.083       .  S
C811        C812   1.398       .  A
C811        O816   1.372       .  S
C812        C813   1.404       .  A
C813        C814   1.399       .  A
C813        H817   1.084   1_655  S
C814        O818   1.372       .  S
O816        H820   0.992       .  S
O818        H819   0.992   1_655  S
C821        C822   1.399       .  A
C821        C826   1.414       .  A
C822        C823   1.399       .  A
C822        H827   1.084       .  S
C823        C824   1.409       .  A
C823        O828   1.372       .  S
C824        C825   1.395       .  A
C825        C826   1.398       .  A
C825        H829   1.084       .  S
C826        O830   1.373       .  S
O828        H832   0.992       .  S
O830        H831   0.992       .  S
C833        C834   1.422       .  A
C833        C838   1.427       .  A
C834        C835   1.410       .  A
C834        H839   1.076       .  S
C835        C836   1.403       .  A
C835        O840   1.375       .  S
C836        C837   1.396       .  A
C837        C838   1.400       .  A
C837        H841   1.084       .  S
C838        O842   1.368       .  S
O840        H844   0.992       .  S
O842        H843   0.992       .  S
C845        C846   1.408       .  A
C845        C850   1.411       .  A
C846        C847   1.412       .  A
C846        H851   1.083       .  S
C847        C848   1.409       .  A
C847        O852   1.371       .  S
C848        C849   1.403       .  A
C849        C850   1.390       .  A
C849        H853   1.084       .  S
C850        O854   1.372       .  S
O852        H856   0.992       .  S
O854        H855   0.992       .  S
C857        C858   1.400       .  A
C857        C862   1.409       .  A
C858        C859   1.390       .  A
C858        H863   1.084       .  S
C859        C860   1.412       .  A
C859        O864   1.373       .  S
C860        C861   1.408       .  A
C861        C862   1.410       .  A
C861        H865   1.083       .  S
C862        O866   1.371       .  S
O864        H868   0.992       .  S
O866        H867   0.992       .  S
C869        C870   1.405   1_556  A
C869        C874   1.410       .  A
C870        C871   1.412       .  A
C870        H875   1.083       .  S
C871        C872   1.420       .  A
C871        O876   1.371       .  S
C872        C873   1.407       .  A
C873        C874   1.398   1_554  A
C873        H877   1.082       .  S
C874        O878   1.373       .  S
O876        H880   0.992       .  S
O878        H879   0.992       .  S
C881        C882   1.403       .  A
C881        C886   1.415       .  A
C882        C883   1.400       .  A
C882        H887   1.084       .  S
C883        C884   1.412       .  A
C883        O888   1.372       .  S
C884        C885   1.399       .  A
C885        C886   1.407       .  A
C885        H889   1.084       .  S
C886        O890   1.373       .  S
O888        H892   0.992       .  S
O890        H891   0.992       .  S
C893        C894   1.406       .  A
C893        C898   1.403       .  A
C894        C895   1.400       .  A
C894        H899   1.084       .  S
C895        C896   1.410       .  A
C895        O900   1.372       .  S
C896        C897   1.413       .  A
C897        C898   1.406       .  A
C897        H901   1.083       .  S
C898        O902   1.371       .  S
O900        H904   0.992       .  S
O902        H903   0.992       .  S
C905        C906   1.409       .  A
C905        C910   1.413       .  A
C906        C907   1.404   1_655  A
C906        H911   1.083   1_655  S
C907        C908   1.407   1_455  A
C907        O912   1.372       .  S
C908        C909   1.402       .  A
C909        C910   1.393       .  A
C909        H913   1.084       .  S
C910        O914   1.372       .  S
O912        H916   0.992       .  S
O914        H915   0.992       .  S
C917        C918   1.407       .  A
C917        C922   1.406       .  A
C918        C919   1.397       .  A
C918        H923   1.084       .  S
C919        C920   1.404       .  A
C919        O924   1.371       .  S
C920        C921   1.403       .  A
C921        C922   1.394       .  A
C921        H925   1.084       .  S
C922        O926   1.372       .  S
O924        H928   0.992       .  S
O926        H927   0.992       .  S
C929        C930   1.400       .  A
C929        C934   1.410       .  A
C930        C931   1.397       .  A
C930        H935   1.084       .  S
C931        C932   1.409       .  A
C931        O936   1.372       .  S
C932        C933   1.398       .  A
C933        C934   1.394       .  A
C933        H937   1.084       .  S
C934        O938   1.372       .  S
O936        H940   0.992       .  S
O938        H939   0.992       .  S
