geometry optimzed in LAMMPS
_audit_creation_date              2020-12-01 
_audit_creation_method            'lammps2cif' 
_symmetry_space_group_name_H-M    'P1' 
_symmetry_Int_Tables_number       1 
_symmetry_cell_setting            triclinic 
loop_ 
_symmetry_equiv_pos_as_xyz 
  x,y,z 
_cell_length_a                    30.3684461 
_cell_length_b                    30.478441274496628 
_cell_length_c                    53.64614488207304 
_cell_angle_alpha                 90.02108508122679 
_cell_angle_beta                  90.0895574576953 
_cell_angle_gamma                 90.06574389225167 
loop_ 
_atom_site_label 
_atom_site_type_symbol 
_atom_site_fract_x 
_atom_site_fract_y 
_atom_site_fract_z 
_atom_site_charge 
O1          O  0.03512396  0.83400704  0.55596083    -0.72900
O2          O  0.13760927  0.82800861  0.51377223    -0.72900
O3          O  0.11396269  0.79304665  0.55807795    -0.73000
O4          O  0.05753421  0.86825866  0.51156055    -0.73000
O5          O  0.08597185  0.92673612  0.53061282    -0.73000
O6          O  0.14103613  0.85082418  0.57861885    -0.73000
O7          O  0.16633703  0.88510575  0.53402377    -0.72900
O8          O  0.06326514  0.89259326  0.57500738    -0.73000
Ni9        Ni  0.08523723  0.82882348  0.53406493     1.25400
Ni10       Ni  0.11543180  0.89097475  0.55509997     1.25400
C11         C  0.03235620  0.86433013  0.57253059     0.89300
C12         C  0.16945585  0.85500680  0.51740637     0.89200
C13         C  0.13519807  0.80934746  0.57646291     0.89200
C14         C  0.06034608  0.90983968  0.51412407     0.89400
O15         O  0.87066300  0.74799977  0.66448146    -0.72900
O16         O  0.87610960  0.84896789  0.70776889    -0.72900
O17         O  0.83657848  0.76838178  0.70927246    -0.73000
O18         O  0.91130371  0.82685521  0.66305428    -0.73000
O19         O  0.85279175  0.85436896  0.64329940    -0.73000
O20         O  0.77730397  0.79556338  0.69044665    -0.73000
O21         O  0.81686362  0.87600454  0.68860875    -0.72900
O22         O  0.81179438  0.77660451  0.64573288    -0.73000
Ni23       Ni  0.87573821  0.79726370  0.68692897     1.25400
Ni24       Ni  0.81260505  0.82698223  0.66649095     1.25400
C25         C  0.84030873  0.74607601  0.64780094     0.89300
C26         C  0.84699827  0.87915362  0.70521759     0.89200
C27         C  0.79474871  0.77006147  0.70676721     0.89200
C28         C  0.89453146  0.84818799  0.64488790     0.89400
O29         O  0.11873348  0.66946125  0.66306865    -0.72900
O30         O  0.10852149  0.56780274  0.70498408    -0.72900
O31         O  0.15067678  0.64613493  0.70760831    -0.73000
O32         O  0.07519164  0.59223653  0.66010257    -0.73000
O33         O  0.13305683  0.56421342  0.64004913    -0.73000
O34         O  0.20917226  0.61618369  0.68932307    -0.73000
O35         O  0.16543834  0.53771036  0.68511128    -0.72900
O36         O  0.17754146  0.64003703  0.64474855    -0.73000
Ni37       Ni  0.11117938  0.61970689  0.68466683     1.25400
Ni38       Ni  0.17340118  0.58812441  0.66427024     1.25400
C39         C  0.15017199  0.67156202  0.64714601     0.89300
C40         C  0.13532476  0.53582838  0.70176150     0.89200
C41         C  0.19237414  0.64228596  0.70551742     0.89200
C42         C  0.09152966  0.57125075  0.64168073     0.89400
O43         O  0.95180514  0.58608184  0.55271275    -0.72900
O44         O  0.84923787  0.59344499  0.51066566    -0.72900
O45         O  0.87378297  0.62803717  0.55521291    -0.73000
O46         O  0.92838619  0.55269425  0.50835587    -0.73000
O47         O  0.89920386  0.49438158  0.52723629    -0.73000
O48         O  0.84647727  0.57049968  0.57580314    -0.73000
O49         O  0.81968082  0.53689888  0.53107780    -0.72900
O50         O  0.92314579  0.52754276  0.57154783    -0.73000
Ni51       Ni  0.90157406  0.59211551  0.53097415     1.25400
Ni52       Ni  0.87075053  0.53018935  0.55195227     1.25400
C53         C  0.95430431  0.55548247  0.56910801     0.89300
C54         C  0.81733121  0.56656016  0.51420423     0.89200
C55         C  0.85329637  0.61186571  0.57386225     0.89200
C56         C  0.92495146  0.51120024  0.51084832     0.89400
O57         O  0.61289690  0.67160348  0.80759349    -0.72900
O58         O  0.60646078  0.56982137  0.76488196    -0.72900
O59         O  0.57307299  0.59229579  0.80999475    -0.73000
O60         O  0.64519544  0.65068291  0.76244286    -0.73000
O61         O  0.70520227  0.62389792  0.78070664    -0.73000
O62         O  0.63245990  0.56543278  0.82919728    -0.73000
O63         O  0.66632671  0.54324397  0.78354363    -0.72900
O64         O  0.67257624  0.64362835  0.82586184    -0.73000
Ni65       Ni  0.60726747  0.62186651  0.78549638     1.25400
Ni66       Ni  0.67126367  0.59277887  0.80534481     1.25400
C67         C  0.64387767  0.67403340  0.82387804     0.89300
C68         C  0.63572694  0.53969931  0.76720922     0.89200
C69         C  0.59065040  0.57108487  0.82797539     0.89200
C70         C  0.68710543  0.64892684  0.76437584     0.89400
O71         O  0.44988582  0.58781377  0.91527026    -0.72900
O72         O  0.34700533  0.59601853  0.95689695    -0.72900
O73         O  0.42647118  0.55563849  0.95972017    -0.73000
O74         O  0.37154805  0.62945035  0.91202771    -0.73000
O75         O  0.34495979  0.57106160  0.89183904    -0.73000
O76         O  0.39718135  0.49682289  0.94151236    -0.73000
O77         O  0.31773014  0.53889759  0.93678033    -0.72900
O78         O  0.42169683  0.52837019  0.89706947    -0.73000
Ni79       Ni  0.39945172  0.59435230  0.93673116     1.25400
Ni80       Ni  0.36901046  0.53166931  0.91627642     1.25400
C81         C  0.45283799  0.55636314  0.89941751     0.89300
C82         C  0.31525119  0.56890058  0.95343710     0.89200
C83         C  0.42329818  0.51403835  0.95762249     0.89200
C84         C  0.35151138  0.61252144  0.89338335     0.89400
O85         O  0.37102187  0.74764754  0.80205000    -0.72900
O86         O  0.37705828  0.84973483  0.75918758    -0.72900
O87         O  0.41133028  0.82664711  0.80406803    -0.73000
O88         O  0.33814490  0.76861674  0.75698815    -0.73000
O89         O  0.27846175  0.79560288  0.77549617    -0.73000
O90         O  0.35237231  0.85357744  0.82356715    -0.73000
O91         O  0.31762080  0.87620507  0.77823868    -0.72900
O92         O  0.31162692  0.77588738  0.82029491    -0.73000
Ni93       Ni  0.37651466  0.79739598  0.77977761     1.25400
Ni94       Ni  0.31294034  0.82664141  0.79988817     1.25400
C95         C  0.34021905  0.74541472  0.81844677     0.89300
C96         C  0.34796558  0.88000235  0.76185510     0.89200
C97         C  0.39411145  0.84753869  0.82223358     0.89200
C98         C  0.29633045  0.77002929  0.75941301     0.89400
O99         O  0.52853082  0.83452759  0.91418575    -0.72900
O100        O  0.62852283  0.83012243  0.95843765    -0.72900
O101        O  0.54784403  0.86920912  0.95889636    -0.73000
O102        O  0.60761716  0.79446471  0.91386650    -0.73000
O103        O  0.63599819  0.85219397  0.89394736    -0.73000
O104        O  0.57598630  0.92787499  0.94003578    -0.73000
O105        O  0.65666760  0.88847060  0.93914892    -0.72900
O106        O  0.55772003  0.89281058  0.89533886    -0.73000
Ni107      Ni  0.57730608  0.83005994  0.93712780     1.25400
Ni108      Ni  0.60792844  0.89246815  0.91658751     1.25400
C109        C  0.52696966  0.86437273  0.89730169     0.89300
C110        C  0.65935536  0.85860116  0.95586401     0.89200
C111        C  0.54986476  0.91075334  0.95612441     0.89200
C112        C  0.62978101  0.81068854  0.89588348     0.89400
O113        O  0.52721596  0.33358612  0.05396042    -0.72900
O114        O  0.62862959  0.32880457  0.01067528    -0.72900
O115        O  0.60708144  0.29415802  0.05549097    -0.73000
O116        O  0.54773230  0.36708968  0.00911432    -0.73000
O117        O  0.57538244  0.42634538  0.02766822    -0.73000
O118        O  0.63428168  0.35283075  0.07513626    -0.73000
O119        O  0.65593146  0.38757158  0.02993816    -0.72900
O120        O  0.55556321  0.39271326  0.07242335    -0.73000
Ni121      Ni  0.57687105  0.32876923  0.03156745     1.25400
Ni122      Ni  0.60654464  0.39195110  0.05183827     1.25400
C123        C  0.52483184  0.36424149  0.07036977     0.89300
C124        C  0.65910611  0.35771518  0.01324866     0.89200
C125        C  0.62890893  0.31122898  0.07342055     0.89200
C126        C  0.54979090  0.40873243  0.01145111     0.89400
O127        O  0.36689553  0.25438795  0.16384957    -0.72900
O128        O  0.36957516  0.35589969  0.20662754    -0.72900
O129        O  0.33266648  0.27464642  0.20863017    -0.73000
O130        O  0.40527134  0.33388983  0.16199576    -0.73000
O131        O  0.34625948  0.35945401  0.14189436    -0.73000
O132        O  0.27261988  0.30034451  0.18980960    -0.73000
O133        O  0.30990411  0.38154334  0.18727134    -0.72900
O134        O  0.30711028  0.28106842  0.14510663    -0.73000
Ni135      Ni  0.37069308  0.30401729  0.18604952     1.25400
Ni136      Ni  0.30682684  0.33191377  0.16547581     1.25400
C137        C  0.33660103  0.25148249  0.14718699     0.89300
C138        C  0.33969569  0.38532225  0.20403455     0.89200
C139        C  0.29083290  0.27574001  0.20630139     0.89200
C140        C  0.38810563  0.35395202  0.14349493     0.89400
O141        O  0.61556935  0.17289589  0.16116471    -0.72900
O142        O  0.60750837  0.07022218  0.20280677    -0.72900
O143        O  0.64696583  0.15019650  0.20603756    -0.73000
O144        O  0.57475468  0.09431674  0.15792938    -0.73000
O145        O  0.63389451  0.06735677  0.13858675    -0.73000
O146        O  0.70693614  0.12318952  0.18781749    -0.73000
O147        O  0.66701141  0.04335831  0.18399465    -0.72900
O148        O  0.67516710  0.14485897  0.14293534    -0.73000
Ni149      Ni  0.60905785  0.12267935  0.18270900     1.25400
Ni150      Ni  0.67287595  0.09338096  0.16279953     1.25400
C151        C  0.64686491  0.17555523  0.14514830     0.89300
C152        C  0.63637186  0.03981700  0.20023309     0.89200
C153        C  0.68879393  0.14808569  0.20413631     0.89200
C154        C  0.59216520  0.07336133  0.13985218     0.89400
O155        O  0.45207842  0.09174540  0.05217468    -0.72900
O156        O  0.34976785  0.09966959  0.01002032    -0.72900
O157        O  0.37412228  0.13405112  0.05466318    -0.73000
O158        O  0.42876023  0.05872941  0.00780529    -0.73000
O159        O  0.39873869  0.00056936  0.02627160    -0.73000
O160        O  0.34694921  0.07637272  0.07520329    -0.73000
O161        O  0.31996550  0.04333509  0.03053115    -0.72900
O162        O  0.42323859  0.03288971  0.07061192    -0.73000
Ni163      Ni  0.40197678  0.09816135  0.03041686     1.25400
Ni164      Ni  0.37086445  0.03619966  0.05121049     1.25400
C165        C  0.45455152  0.06061890  0.06824341     0.89300
C166        C  0.31785528  0.07280666  0.01358561     0.89200
C167        C  0.35360874  0.11775176  0.07326556     0.89200
C168        C  0.42476005  0.01722239  0.00997481     0.89400
O169        O  0.86647705  0.24589660  0.30504395    -0.72900
O170        O  0.87188223  0.34843022  0.26299261    -0.72900
O171        O  0.90631454  0.32491123  0.30768115    -0.73000
O172        O  0.83307281  0.26817717  0.26034515    -0.73000
O173        O  0.77343825  0.29480221  0.27907667    -0.73000
O174        O  0.84744547  0.35119837  0.32756231    -0.73000
O175        O  0.81273429  0.37492016  0.28231091    -0.72900
O176        O  0.80708027  0.27310316  0.32377303    -0.73000
Ni177      Ni  0.87153429  0.29609207  0.28327196     1.25400
Ni178      Ni  0.80805718  0.32478039  0.30374440     1.25400
C179        C  0.83590735  0.24281936  0.32149205     0.89300
C180        C  0.84274911  0.37855830  0.26566966     0.89200
C181        C  0.88917189  0.34550395  0.32598123     0.89200
C182        C  0.79126173  0.27033932  0.26245487     0.89400
O183        O  0.02811069  0.33256970  0.41571041    -0.72900
O184        O  0.13140458  0.32967411  0.45759342    -0.72900
O185        O  0.05074063  0.36810223  0.45975359    -0.73000
O186        O  0.10735156  0.29271905  0.41376679    -0.73000
O187        O  0.13430290  0.35008487  0.39293648    -0.73000
O188        O  0.07691278  0.42659394  0.43970986    -0.73000
O189        O  0.15766419  0.38780494  0.43727872    -0.72900
O190        O  0.05596563  0.39042169  0.39582836    -0.73000
Ni191      Ni  0.07864935  0.32870369  0.43750369     1.25400
Ni192      Ni  0.10748991  0.39080436  0.41584450     1.25400
C193        C  0.02534770  0.36214159  0.39870897     0.89300
C194        C  0.16159045  0.35862801  0.45427618     0.89200
C195        C  0.05229162  0.40956601  0.45657236     0.89200
C196        C  0.12849815  0.30857462  0.39528726     0.89400
O197        O  0.11484172  0.17102778  0.30609306    -0.72900
O198        O  0.10985253  0.07106402  0.26225297    -0.72900
O199        O  0.07518674  0.09166052  0.30740832    -0.73000
O200        O  0.14808300  0.15160931  0.26116209    -0.73000
O201        O  0.20798374  0.12399207  0.27926152    -0.73000
O202        O  0.13422886  0.06480886  0.32695772    -0.73000
O203        O  0.16867400  0.04302372  0.28146037    -0.72900
O204        O  0.17455539  0.14290897  0.32431047    -0.73000
Ni205      Ni  0.10987535  0.12208329  0.28349504     1.25400
Ni206      Ni  0.17353869  0.09236577  0.30350700     1.25400
C207        C  0.14566457  0.17317963  0.32246109     0.89300
C208        C  0.13851693  0.04052610  0.26482880     0.89200
C209        C  0.09244222  0.07047500  0.32550045     0.89200
C210        C  0.18991940  0.14968156  0.26325684     0.89400
O211        O  0.95606638  0.08620650  0.41553852    -0.72900
O212        O  0.85479326  0.09280327  0.45869832    -0.72900
O213        O  0.93563189  0.05424787  0.46078279    -0.73000
O214        O  0.87666149  0.12614080  0.41333994    -0.73000
O215        O  0.85021141  0.06694629  0.39388194    -0.73000
O216        O  0.90708551  0.99452524  0.44305322    -0.73000
O217        O  0.82626632  0.03457335  0.43934498    -0.72900
O218        O  0.92802237  0.02608409  0.39794134    -0.73000
Ni219      Ni  0.90655173  0.09198415  0.43783283     1.25400
Ni220      Ni  0.87659251  0.02836689  0.41808981     1.25400
C221        C  0.95847649  0.05490931  0.39953855     0.89300
C222        C  0.82346457  0.06493303  0.45577092     0.89200
C223        C  0.93322869  0.01253732  0.45890893     0.89200
C224        C  0.85581604  0.10859885  0.39515875     0.89400
O225        O  0.61389903  0.25124680  0.66501395    -0.72900
O226        O  0.60713831  0.35357769  0.70716866    -0.72900
O227        O  0.57319916  0.32995261  0.66248505    -0.73000
O228        O  0.64663728  0.27321148  0.70970312    -0.73000
O229        O  0.70626077  0.29993699  0.69100027    -0.73000
O230        O  0.63186117  0.35747992  0.64293724    -0.73000
O231        O  0.66667273  0.38041865  0.68829337    -0.72900
O232        O  0.67288633  0.27950319  0.64633291    -0.73000
Ni233      Ni  0.60812040  0.30125246  0.68683728     1.25400
Ni234      Ni  0.67151918  0.33069121  0.66659277     1.25400
C235        C  0.64484487  0.24853197  0.64877522     0.89300
C236        C  0.63613911  0.38393083  0.70461804     0.89200
C237        C  0.59011194  0.35147655  0.64446212     0.89200
C238        C  0.68843067  0.27456652  0.70722329     0.89400
O239        O  0.45119047  0.34019736  0.55553317    -0.72900
O240        O  0.34854265  0.33348151  0.51355752    -0.72900
O241        O  0.42844553  0.37355167  0.51106083    -0.73000
O242        O  0.37263984  0.29905708  0.55795413    -0.73000
O243        O  0.34477687  0.35693030  0.57794276    -0.73000
O244        O  0.40142791  0.43248524  0.53011798    -0.73000
O245        O  0.32119892  0.39237319  0.53272443    -0.72900
O246        O  0.42260248  0.39842473  0.57472286    -0.73000
Ni247      Ni  0.40097445  0.33454828  0.53376907     1.25400
Ni248      Ni  0.37113885  0.39717383  0.55444920     1.25400
C249        C  0.45353114  0.37037778  0.57219160     0.89300
C250        C  0.31801569  0.36213711  0.51623392     0.89200
C251        C  0.42635521  0.41516663  0.51349008     0.89200
C252        C  0.35139424  0.31542699  0.57623956     0.89400
O253        O  0.36921806  0.17455739  0.66480927    -0.72900
O254        O  0.37432934  0.07168796  0.70689721    -0.72900
O255        O  0.41049346  0.09586353  0.66302994    -0.73000
O256        O  0.33401216  0.15197284  0.70892722    -0.73000
O257        O  0.27563351  0.12505111  0.68891528    -0.73000
O258        O  0.35297319  0.06783766  0.64251706    -0.73000
O259        O  0.31581453  0.04477806  0.68695281    -0.72900
O260        O  0.31162984  0.14572715  0.64491259    -0.73000
Ni261      Ni  0.37404659  0.12434285  0.68672742     1.25400
Ni262      Ni  0.31194338  0.09456324  0.66524995     1.25400
C263        C  0.33939948  0.17685957  0.64781457     0.89300
C264        C  0.34588203  0.04098573  0.70358038     0.89200
C265        C  0.39458007  0.07400416  0.64480428     0.89200
C266        C  0.29235257  0.15009082  0.70568243     0.89400
O267        O  0.53439537  0.08532129  0.55690991    -0.72900
O268        O  0.63564487  0.09178180  0.51408120    -0.72900
O269        O  0.55613309  0.05154197  0.51241375    -0.73000
O270        O  0.61291937  0.12672485  0.55885439    -0.73000
O271        O  0.64025639  0.06897300  0.57926232    -0.73000
O272        O  0.58521007  0.99312178  0.53125034    -0.73000
O273        O  0.66513851  0.03497844  0.53431823    -0.72900
O274        O  0.56306775  0.02673065  0.57575505    -0.73000
Ni275      Ni  0.58398222  0.09091890  0.53481564     1.25400
Ni276      Ni  0.61477756  0.02880685  0.55567616     1.25400
C277        C  0.53215177  0.05488141  0.57339863     0.89300
C278        C  0.66724179  0.06452226  0.51737636     0.89200
C279        C  0.55946756  0.01001804  0.51486672     0.89200
C280        C  0.63373654  0.11036751  0.57736552     0.89400
O281        O  0.10921793  0.24892637  0.80301385    -0.72900
O282        O  0.10486267  0.34981231  0.76009056    -0.72900
O283        O  0.14399792  0.26988350  0.75852940    -0.73000
O284        O  0.06934370  0.32793345  0.80472012    -0.73000
O285        O  0.12766095  0.35437921  0.82521215    -0.73000
O286        O  0.20276898  0.29878204  0.77729480    -0.73000
O287        O  0.16203633  0.37870073  0.78053418    -0.72900
O288        O  0.16860063  0.27683382  0.82168870    -0.73000
Ni289      Ni  0.10474424  0.29835074  0.78081726     1.25400
Ni290      Ni  0.16743121  0.32841311  0.80172097     1.25400
C291        C  0.13970361  0.24651349  0.81954896     0.89300
C292        C  0.13247111  0.38107810  0.76356329     0.89200
C293        C  0.18574399  0.27307096  0.76095702     0.89200
C294        C  0.08601241  0.34881551  0.82314820     0.89400
O295        O  0.94908870  0.33588446  0.91267666    -0.72900
O296        O  0.84634956  0.32930934  0.95456563    -0.72900
O297        O  0.87051291  0.29468699  0.91031760    -0.73000
O298        O  0.92669367  0.36938830  0.95709685    -0.73000
O299        O  0.89941960  0.42826394  0.93793378    -0.73000
O300        O  0.84245767  0.35243934  0.89028166    -0.73000
O301        O  0.81914490  0.38815067  0.93522479    -0.72900
O302        O  0.92016823  0.39402036  0.89350775    -0.73000
Ni303      Ni  0.89895003  0.33026461  0.93445433     1.25400
Ni304      Ni  0.86896027  0.39281014  0.91367558     1.25400
C305        C  0.95113859  0.36607521  0.89601631     0.89300
C306        C  0.81579848  0.35792581  0.95165437     0.89200
C307        C  0.84891577  0.31093674  0.89209614     0.89200
C308        C  0.92482333  0.41096573  0.95436478     0.89400
O309        O  0.86480289  0.17104897  0.80403471    -0.72900
O310        O  0.87242093  0.06767271  0.76270096    -0.72900
O311        O  0.83264462  0.14778200  0.75926784    -0.73000
O312        O  0.90571382  0.09247775  0.80736271    -0.73000
O313        O  0.84673347  0.06547883  0.82687758    -0.73000
O314        O  0.77297652  0.12091500  0.77787036    -0.73000
O315        O  0.81303325  0.04097700  0.78173603    -0.72900
O316        O  0.80554083  0.14292292  0.82260839    -0.73000
Ni317      Ni  0.87100841  0.12051877  0.78257755     1.25400
Ni318      Ni  0.80745388  0.09128036  0.80279285     1.25400
C319        C  0.83385055  0.17366674  0.82027598     0.89300
C320        C  0.84376276  0.03707601  0.76558056     0.89200
C321        C  0.79080905  0.14588665  0.76145788     0.89200
C322        C  0.88845669  0.07156790  0.82552442     0.89400
O323        O  0.02612763  0.08666041  0.91478665    -0.72900
O324        O  0.12877254  0.09574215  0.95650747    -0.72900
O325        O  0.10397808  0.12869458  0.91174255    -0.73000
O326        O  0.04958253  0.05476948  0.95946438    -0.73000
O327        O  0.07922300  0.99613531  0.94137154    -0.73000
O328        O  0.13102708  0.07065628  0.89153923    -0.73000
O329        O  0.15843157  0.03887065  0.93646848    -0.72900
O330        O  0.05466186  0.02737859  0.89667744    -0.73000
Ni331      Ni  0.07633436  0.09353006  0.93637644     1.25400
Ni332      Ni  0.10718003  0.03108576  0.91600002     1.25400
C333        C  0.02366790  0.05548768  0.89874188     0.89300
C334        C  0.16080280  0.06906704  0.95301775     0.89200
C335        C  0.12438350  0.11208829  0.89319607     0.89200
C336        C  0.05324526  0.01319134  0.95757829     0.89400
O337        O  0.36374305  0.67192848  0.30612362    -0.72900
O338        O  0.36568721  0.57002716  0.26395080    -0.72900
O339        O  0.32847439  0.65088625  0.26170734    -0.73000
O340        O  0.40178606  0.59240222  0.30824786    -0.73000
O341        O  0.34292649  0.56687737  0.32851103    -0.73000
O342        O  0.26866970  0.62551174  0.28096421    -0.73000
O343        O  0.30632582  0.54423734  0.28345110    -0.72900
O344        O  0.30435276  0.64560137  0.32538342    -0.73000
Ni345      Ni  0.36695370  0.62202624  0.28422122     1.25400
Ni346      Ni  0.30337020  0.59428917  0.30513186     1.25400
C347        C  0.33396072  0.67514702  0.32297506     0.89300
C348        C  0.33633746  0.54017256  0.26684040     0.89200
C349        C  0.28669562  0.64976184  0.26429282     0.89200
C350        C  0.38471019  0.57218614  0.32670292     0.89400
O351        O  0.52650263  0.59311616  0.41406013    -0.72900
O352        O  0.62912727  0.59890708  0.45640393    -0.72900
O353        O  0.60578776  0.63309830  0.41146983    -0.73000
O354        O  0.54847671  0.56065390  0.45880474    -0.73000
O355        O  0.57656722  0.50118762  0.44079781    -0.73000
O356        O  0.63127047  0.57437881  0.39126061    -0.73000
O357        O  0.65712456  0.54129394  0.43630053    -0.72900
O358        O  0.55372577  0.53309755  0.39610149    -0.73000
Ni359      Ni  0.57677677  0.59858662  0.43591969     1.25400
Ni360      Ni  0.60598773  0.53533969  0.41559194     1.25400
C361        C  0.52324496  0.56170778  0.39817050     0.89300
C362        C  0.66022823  0.57102309  0.45306977     0.89200
C363        C  0.62570109  0.61599042  0.39290296     0.89200
C364        C  0.55089667  0.51900711  0.45690711     0.89400
O365        O  0.45895446  0.83531578  0.41489941    -0.72900
O366        O  0.35989776  0.82434288  0.45959050    -0.72900
O367        O  0.38110757  0.79212114  0.41395372    -0.73000
O368        O  0.43903026  0.86591103  0.46053435    -0.73000
O369        O  0.40812475  0.92478802  0.44312784    -0.73000
O370        O  0.35110958  0.85021835  0.39513482    -0.73000
O371        O  0.32873963  0.88192381  0.44092903    -0.72900
O372        O  0.42764955  0.89403058  0.39763340    -0.73000
Ni373      Ni  0.41067846  0.82731437  0.43794732     1.25400
Ni374      Ni  0.37751807  0.88985418  0.41874085     1.25400
C375        C  0.45936833  0.86661119  0.39882357     0.89300
C376        C  0.32775219  0.85137337  0.45727699     0.89200
C377        C  0.35833221  0.80883365  0.39632605     0.89200
C378        C  0.43496811  0.90745461  0.45879309     0.89400
O379        O  0.60945679  0.75269064  0.30259795    -0.72900
O380        O  0.60509970  0.85384421  0.25954664    -0.72900
O381        O  0.64255906  0.77221138  0.25747421    -0.73000
O382        O  0.57134652  0.83267684  0.30469080    -0.73000
O383        O  0.63135429  0.85884388  0.32364486    -0.73000
O384        O  0.70291746  0.79843511  0.27571243    -0.73000
O385        O  0.66562394  0.87968835  0.27801179    -0.72900
O386        O  0.66968155  0.77988709  0.32071016    -0.73000
Ni387      Ni  0.60496581  0.80213577  0.28029884     1.25400
Ni388      Ni  0.66952890  0.83047501  0.30001028     1.25400
C389        C  0.64032056  0.74998757  0.31892138     0.89300
C390        C  0.63482801  0.88354502  0.26184465     0.89200
C391        C  0.68449280  0.77302276  0.25971358     0.89200
C392        C  0.58947456  0.85367614  0.32262071     0.89400
O393        O  0.11365339  0.75223548  0.16378762    -0.72900
O394        O  0.10992104  0.85507883  0.20544461    -0.72900
O395        O  0.07575893  0.83173550  0.16056485    -0.73000
O396        O  0.14667625  0.77414997  0.20864080    -0.73000
O397        O  0.20719581  0.80017195  0.19038707    -0.73000
O398        O  0.13552566  0.85602693  0.14066014    -0.73000
O399        O  0.16906716  0.88119831  0.18592543    -0.72900
O400        O  0.17441363  0.77790853  0.14566969    -0.73000
Ni401      Ni  0.10938089  0.80263743  0.18537094     1.25400
Ni402      Ni  0.17376465  0.83008854  0.16515869     1.25400
C403        C  0.14457926  0.74849503  0.14762244     0.89300
C404        C  0.13886151  0.88533901  0.20241402     0.89200
C405        C  0.09370775  0.85086761  0.14199045     0.89200
C406        C  0.18853375  0.77564022  0.20670769     0.89400
O407        O  0.95361597  0.83106188  0.05295462    -0.72900
O408        O  0.84848711  0.82593788  0.01236424    -0.72900
O409        O  0.92907226  0.86552785  0.00901174    -0.73000
O410        O  0.87476566  0.79008286  0.05617613    -0.73000
O411        O  0.84854636  0.84787073  0.07694800    -0.73000
O412        O  0.90281334  0.92406733  0.02877368    -0.73000
O413        O  0.82261181  0.88429809  0.03264971    -0.72900
O414        O  0.92602360  0.88931159  0.07247529    -0.73000
Ni415      Ni  0.90220281  0.82605689  0.03180074     1.25400
Ni416      Ni  0.87368429  0.88839945  0.05329546     1.25400
C417        C  0.95685008  0.86138692  0.06952903     0.89300
C418        C  0.81825005  0.85471692  0.01591414     0.89200
C419        C  0.92756464  0.90708966  0.01196724     0.89200
C420        C  0.85460745  0.80635787  0.07488759     0.89400
O421        O  0.02429946  0.59289739  0.05338561    -0.72900
O422        O  0.12574871  0.59854127  0.01015976    -0.72900
O423        O  0.04445532  0.56050287  0.00829491    -0.73000
O424        O  0.10390635  0.63250607  0.05534016    -0.73000
O425        O  0.12969399  0.57336750  0.07506951    -0.73000
O426        O  0.07321716  0.50079245  0.02583269    -0.73000
O427        O  0.15394558  0.54059204  0.02984858    -0.72900
O428        O  0.05205543  0.53250279  0.07073945    -0.73000
Ni429      Ni  0.07385101  0.59826791  0.03102459     1.25400
Ni430      Ni  0.10350714  0.53466823  0.05085058     1.25400
C431        C  0.02180426  0.56142783  0.06926708     0.89300
C432        C  0.15701526  0.57071261  0.01334143     0.89200
C433        C  0.04689134  0.51881477  0.01012309     0.89200
C434        C  0.12433612  0.61501793  0.07364594     0.89400
O435        O  0.86518530  0.66772644  0.16475264    -0.72900
O436        O  0.87014626  0.56475780  0.20628945    -0.72900
O437        O  0.90471275  0.58903527  0.16194457    -0.73000
O438        O  0.83091311  0.64535669  0.20913205    -0.73000
O439        O  0.77148923  0.61925151  0.18989149    -0.73000
O440        O  0.84596966  0.56267125  0.14181732    -0.73000
O441        O  0.81070311  0.53856645  0.18689534    -0.72900
O442        O  0.80608033  0.64059760  0.14550403    -0.73000
Ni443      Ni  0.86977615  0.61741817  0.18635039     1.25400
Ni444      Ni  0.80641191  0.58892923  0.16550413     1.25400
C445        C  0.83510823  0.67071959  0.14798813     0.89300
C446        C  0.84116542  0.53453472  0.20330083     0.89200
C447        C  0.88763650  0.56897294  0.14338753     0.89200
C448        C  0.78910361  0.64425683  0.20638645     0.89400
C449        C  0.99172638  0.53944503  0.11059522     0.25100
C450        C  0.98469804  0.55841417  0.08695603    -0.23000
C451        C  0.94269130  0.57479395  0.08099673     0.20000
C452        C  0.90894399  0.57385895  0.09878364     0.25100
C453        C  0.91707521  0.55721469  0.12280851    -0.22900
C454        C  0.95831169  0.53911239  0.12833217     0.20000
F455        F  0.96700466  0.52335135  0.15150241    -0.12900
F456        F  0.03192405  0.52383034  0.11726043    -0.15300
F457        F  0.86958540  0.59262462  0.09325492    -0.15300
F458        F  0.93460405  0.59264578  0.05826227    -0.12900
C459        C  0.85821443  0.78216356  0.11910695     0.25100
C460        C  0.84148455  0.77618578  0.09491059    -0.23000
C461        C  0.81973313  0.73696945  0.08892851     0.20000
C462        C  0.81578237  0.70359444  0.10660708     0.25100
C463        C  0.83460983  0.70838930  0.13051640    -0.22900
C464        C  0.85504221  0.74844067  0.13675556     0.20000
F465        F  0.87304775  0.75457334  0.15967733    -0.12900
F466        F  0.88082732  0.81921509  0.12501141    -0.15300
F467        F  0.79593264  0.66553455  0.09968452    -0.15300
F468        F  0.80395350  0.73025747  0.06552914    -0.12900
C469        C  0.02616769  0.88625799  0.12640553     0.25100
C470        C  0.06490931  0.86326749  0.12124968    -0.23000
C471        C  0.07013316  0.84294927  0.09791050     0.20000
C472        C  0.03559176  0.84322606  0.08054592     0.25100
C473        C  0.99557965  0.86423402  0.08629524    -0.22900
C474        C  0.99199601  0.88716330  0.10909494     0.20000
F475        F  0.95427281  0.90813413  0.11556368    -0.12900
F476        F  0.02034961  0.90557428  0.14898115    -0.15300
F477        F  0.04081254  0.82171934  0.05857969    -0.15300
F478        F  0.10704983  0.81948938  0.09284752    -0.12900
C479        C  0.16096329  0.68281320  0.08855160     0.25100
C480        C  0.13832991  0.64394715  0.09405339    -0.23000
C481        C  0.12100968  0.63770174  0.11806795     0.20000
C482        C  0.12408339  0.67111126  0.13592696     0.25100
C483        C  0.14518765  0.71095985  0.13009289    -0.22900
C484        C  0.16484327  0.71583215  0.10643883     0.20000
F485        F  0.18521387  0.75379220  0.09988657    -0.12900
F486        F  0.17744346  0.68966837  0.06535449    -0.15300
F487        F  0.10519389  0.66498111  0.15858584    -0.15300
F488        F  0.09782405  0.60082361  0.12353305    -0.12900
C489        C  0.69164249  0.71264083  0.22782494     0.25100
C490        C  0.71155270  0.74166004  0.24500735    -0.23000
C491        C  0.75685661  0.73698471  0.24995773     0.20000
C492        C  0.78141610  0.70418571  0.23829761     0.25100
C493        C  0.76157541  0.67516221  0.22110574    -0.22900
C494        C  0.71628237  0.67985899  0.21607875     0.20000
F495        F  0.69562433  0.65323904  0.19945237    -0.12900
F496        F  0.64810239  0.71564016  0.22228913    -0.15300
F497        F  0.82497972  0.70142020  0.24382732    -0.15300
F498        F  0.77774435  0.76377759  0.26639806    -0.12900
C499        C  0.51990895  0.88644346  0.33824671     0.25100
C500        C  0.56118279  0.86788648  0.34334174    -0.23000
C501        C  0.57085921  0.85396632  0.36772419     0.20000
C502        C  0.53827366  0.85488419  0.38618022     0.25100
C503        C  0.49582228  0.87057570  0.38061499    -0.22900
C504        C  0.48767377  0.88831694  0.35676011     0.20000
F505        F  0.44747729  0.90466574  0.35070375    -0.12900
F506        F  0.51004982  0.90066155  0.31490318    -0.15300
F507        F  0.54787465  0.83922870  0.40924130    -0.15300
F508        F  0.61056242  0.83581444  0.37310240    -0.12900
C509        C  0.65793101  0.68606011  0.37840115     0.25100
C510        C  0.63877392  0.64546951  0.37255719    -0.23000
C511        C  0.62328695  0.63783976  0.34822023     0.20000
C512        C  0.62449205  0.67146786  0.33041312     0.25100
C513        C  0.64185332  0.71289089  0.33665500    -0.22900
C514        C  0.65975954  0.71935300  0.36062964     0.20000
F515        F  0.67640365  0.75892078  0.36752570    -0.12900
F516        F  0.67283136  0.69422970  0.40183527    -0.15300
F517        F  0.60770396  0.66385812  0.30733762    -0.15300
F518        F  0.60365635  0.59914485  0.34230902    -0.12900
C519        C  0.27629173  0.69497427  0.22593469     0.25100
C520        C  0.25986376  0.67956125  0.24884596    -0.23000
C521        C  0.22045534  0.69723451  0.25821343     0.20000
C522        C  0.19818813  0.72992480  0.24502736     0.25100
C523        C  0.21489381  0.74560710  0.22223273    -0.22900
C524        C  0.25409681  0.72768060  0.21279332     0.20000
F525        F  0.27009589  0.74041170  0.19030096    -0.12900
F526        F  0.31371490  0.67800155  0.21602799    -0.15300
F527        F  0.16043004  0.74654228  0.25472454    -0.15300
F528        F  0.20422580  0.68413608  0.28058288    -0.12900
C529        C  0.44395827  0.57753915  0.38780540     0.25100
C530        C  0.48461515  0.55850402  0.38138292    -0.23000
C531        C  0.48869912  0.53733186  0.35810551     0.20000
C532        C  0.45405602  0.53801708  0.34101390     0.25100
C533        C  0.41446550  0.55910698  0.34692198    -0.22900
C534        C  0.40901729  0.57754466  0.37072933     0.20000
F535        F  0.37133083  0.59912077  0.37659465    -0.12900
F536        F  0.43842370  0.59737398  0.41024679    -0.15300
F537        F  0.46007848  0.52040395  0.31800847    -0.15300
F538        F  0.52726630  0.51858402  0.35105231    -0.12900
C539        C  0.35393002  0.75273797  0.33416052     0.25100
C540        C  0.33448691  0.71237311  0.34064398    -0.23000
C541        C  0.31765586  0.70681251  0.36492136     0.20000
C542        C  0.32253373  0.73988758  0.38268622     0.25100
C543        C  0.34339484  0.77939105  0.37643823    -0.22900
C544        C  0.35802771  0.78615477  0.35191921     0.20000
F545        F  0.37961275  0.82365118  0.34574864    -0.12900
F546        F  0.37016378  0.75941294  0.31089876    -0.15300
F547        F  0.30877243  0.73256929  0.40640472    -0.15300
F548        F  0.29917286  0.66823542  0.37207201    -0.12900
C549        C  0.99733382  0.00396756  0.99165619     0.25100
C550        C  0.02384265  0.98516508  0.97288172    -0.23000
C551        C  0.01732473  0.94079688  0.96667930     0.20000
C552        C  0.98466161  0.91616086  0.97849310     0.25100
C553        C  0.95791005  0.93500355  0.99714663    -0.22900
C554        C  0.96474120  0.97929406  0.00353496     0.20000
F555        F  0.94047171  0.99888156  0.02162486    -0.12900
F556        F  0.00264933  0.04649928  0.99862121    -0.15300
F557        F  0.97946112  0.87364177  0.97150673    -0.15300
F558        F  0.04176236  0.92118454  0.94867657    -0.12900
C559        C  0.99077977  0.03334785  0.85784621     0.25100
C560        C  0.98564506  0.05277302  0.88152905    -0.23000
C561        C  0.94499089  0.07212508  0.88765565     0.20000
C562        C  0.91115512  0.07425051  0.86994942     0.25100
C563        C  0.91775915  0.05772949  0.84580414    -0.22900
C564        C  0.95731380  0.03635640  0.84008365     0.20000
F565        F  0.96443229  0.02050670  0.81676979    -0.12900
F566        F  0.02936997  0.01426510  0.85112336    -0.15300
F567        F  0.87349840  0.09598731  0.87567347    -0.15300
F568        F  0.93851426  0.09043050  0.91043388    -0.12900
C569        C  0.94587638  0.48301124  0.97371413     0.25100
C570        C  0.95507473  0.43859329  0.96925144    -0.23000
C571        C  0.99542559  0.42104324  0.97770998     0.20000
C572        C  0.02569820  0.44724115  0.99048355     0.25100
C573        C  0.01652007  0.49162689  0.99502368    -0.22900
C574        C  0.97614466  0.50923320  0.98656050     0.20000
F575        F  0.96506433  0.55153905  0.99142582    -0.12900
F576        F  0.90721943  0.50093623  0.96608726    -0.15300
F577        F  0.06431938  0.42920261  0.99806929    -0.15300
F578        F  0.00647776  0.37870534  0.97292799    -0.12900
C579        C  0.84556423  0.25357217  0.83013636     0.25100
C580        C  0.83122448  0.21157088  0.83740704    -0.23000
C581        C  0.81570425  0.20530410  0.86187978     0.20000
C582        C  0.81779921  0.23931075  0.87922443     0.25100
C583        C  0.83465294  0.28047012  0.87241055    -0.22900
C584        C  0.84698363  0.28792974  0.84751550     0.20000
F585        F  0.86396035  0.32728533  0.84055946    -0.12900
F586        F  0.85920316  0.26106628  0.80642692    -0.15300
F587        F  0.80570890  0.23130360  0.90316732    -0.15300
F588        F  0.80138787  0.16534141  0.86962292    -0.12900
C589        C  0.06441016  0.35112713  0.86781458     0.25100
C590        C  0.05615374  0.36325302  0.84295807    -0.23000
C591        C  0.01514857  0.38095847  0.83649718     0.20000
C592        C  0.98172186  0.38372238  0.85415706     0.25100
C593        C  0.98858249  0.36818342  0.87858955    -0.22900
C594        C  0.03065736  0.35323762  0.88551812     0.20000
F595        F  0.03876604  0.33961481  0.90917950    -0.12900
F596        F  0.10390002  0.33380420  0.87445642    -0.15300
F597        F  0.94168447  0.39872976  0.84676944    -0.15300
F598        F  0.00675720  0.39347283  0.81266143    -0.12900
C599        C  0.12436075  0.16775913  0.83072417     0.25100
C600        C  0.14105304  0.20935832  0.83720952    -0.23000
C601        C  0.15763582  0.21609399  0.86144538     0.20000
C602        C  0.15557597  0.18274581  0.87914367     0.25100
C603        C  0.13725204  0.14192210  0.87301868    -0.22900
C604        C  0.12275716  0.13411678  0.84850924     0.20000
F605        F  0.10375402  0.09521667  0.84236472    -0.12900
F606        F  0.10853260  0.16001381  0.80744512    -0.15300
F607        F  0.16941238  0.19105564  0.90276920    -0.15300
F608        F  0.17303715  0.25598563  0.86864761    -0.12900
C609        C  0.51219517  0.94356655  0.51003430     0.25100
C610        C  0.53025373  0.98199999  0.49975565    -0.23000
C611        C  0.51534721  0.99657354  0.47633009     0.20000
C612        C  0.48285084  0.97330990  0.46347713     0.25100
C613        C  0.46458620  0.93508256  0.47383109    -0.22900
C614        C  0.47968279  0.92030629  0.49716980     0.20000
F615        F  0.46253636  0.88354952  0.50769467    -0.12900
F616        F  0.52458035  0.92946437  0.53300725    -0.15300
F617        F  0.47069261  0.98715082  0.44041420    -0.15300
F618        F  0.53262466  0.03317545  0.46570800    -0.12900
C619        C  0.28006305  0.19916324  0.74250066     0.25100
C620        C  0.26401491  0.17986377  0.72040884    -0.23000
C621        C  0.22280232  0.19330859  0.71109883     0.20000
C622        C  0.19811978  0.22494569  0.72372735     0.25100
C623        C  0.21410767  0.24397309  0.74589629    -0.22900
C624        C  0.25545411  0.23084314  0.75506889     0.20000
F625        F  0.27154232  0.24738942  0.77675623    -0.12900
F626        F  0.31956944  0.18713306  0.75221201    -0.15300
F627        F  0.15864832  0.23722035  0.71405302    -0.15300
F628        F  0.20687752  0.17701706  0.68931275    -0.12900
C629        C  0.50017840  0.03787600  0.61519832     0.25100
C630        C  0.49423249  0.05293793  0.59059882    -0.23000
C631        C  0.45251681  0.06832419  0.58323099     0.20000
C632        C  0.41817455  0.07101364  0.60053211     0.25100
C633        C  0.42534628  0.05912136  0.62549681    -0.22900
C634        C  0.46615516  0.04143215  0.63253664     0.20000
F635        F  0.47375568  0.02969859  0.65658963    -0.12900
F636        F  0.53986312  0.02263766  0.62302462    -0.15300
F637        F  0.37919018  0.08887883  0.59341346    -0.15300
F638        F  0.44533904  0.08200095  0.55949057    -0.12900
C639        C  0.51333830  0.44758499  0.46629511     0.25100
C640        C  0.52080211  0.49188012  0.47228524    -0.23000
C641        C  0.49509876  0.51138354  0.49120910     0.20000
C642        C  0.46303986  0.48715253  0.50382898     0.25100
C643        C  0.45589577  0.44271199  0.49798207    -0.22900
C644        C  0.48125617  0.42340780  0.47886289     0.20000
F645        F  0.47523101  0.38085765  0.47214736    -0.12900
F646        F  0.53628728  0.42758580  0.44780621    -0.15300
F647        F  0.43970345  0.50725620  0.52212885    -0.15300
F648        F  0.50075899  0.55412371  0.49765199    -0.12900
C649        C  0.35416116  0.25642762  0.63761827     0.25100
C650        C  0.33697046  0.21517716  0.63075881    -0.23000
C651        C  0.31795118  0.21033354  0.60689214     0.20000
C652        C  0.31889638  0.24483731  0.58979883     0.25100
C653        C  0.33814075  0.28512860  0.59620983    -0.22900
C654        C  0.35439347  0.29124736  0.62050971     0.20000
F655        F  0.37390106  0.32971827  0.62698370    -0.12900
F656        F  0.37180110  0.26278845  0.66060467    -0.15300
F657        F  0.30316170  0.23813849  0.56638349    -0.15300
F658        F  0.30093648  0.17127988  0.59937039    -0.12900
C659        C  0.75876823  0.23319174  0.71446910     0.25100
C660        C  0.71555966  0.24341606  0.72191901    -0.23000
C661        C  0.69652547  0.21922228  0.74157857     0.20000
C662        C  0.72006562  0.18592722  0.75349386     0.25100
C663        C  0.76346556  0.17608754  0.74626876    -0.22900
C664        C  0.78235560  0.19992846  0.72643015     0.20000
F665        F  0.82384380  0.19116461  0.71844926    -0.12900
F666        F  0.77809103  0.25451626  0.69513555    -0.15300
F667        F  0.70050839  0.16427258  0.77263239    -0.15300
F668        F  0.65493888  0.22771079  0.74948892    -0.12900
C669        C  0.51935839  0.38457605  0.63140834     0.25100
C670        C  0.56010109  0.36644385  0.62470813    -0.23000
C671        C  0.56736836  0.35387928  0.59984151     0.20000
C672        C  0.53314492  0.35648766  0.58234835     0.25100
C673        C  0.49145347  0.37222165  0.58946984    -0.22900
C674        C  0.48545892  0.38781274  0.61394966     0.20000
F675        F  0.44577583  0.40324992  0.62159670    -0.12900
F676        F  0.51158970  0.39685130  0.65534460    -0.15300
F677        F  0.54037973  0.34243453  0.55868686    -0.15300
F678        F  0.60624744  0.33552370  0.59301672    -0.12900
C679        C  0.62703633  0.17002502  0.63816751     0.25100
C680        C  0.64810031  0.20982356  0.63212565    -0.23000
C681        C  0.67115265  0.21289875  0.60934106     0.20000
C682        C  0.66969687  0.17853619  0.59215201     0.25100
C683        C  0.64630650  0.14014494  0.59760850    -0.22900
C684        C  0.62639352  0.13536195  0.62105600     0.20000
F685        F  0.60300874  0.09860797  0.62651909    -0.12900
F686        F  0.60585798  0.16504869  0.66025950    -0.15300
F687        F  0.68927351  0.18356205  0.56958586    -0.15300
F688        F  0.69288828  0.25014287  0.60288320    -0.12900
C689        C  0.74141467  0.06072327  0.46071588     0.25100
C690        C  0.78330074  0.06742888  0.47142090    -0.23000
C691        C  0.78639806  0.07476407  0.49725543     0.20000
C692        C  0.74852970  0.07381328  0.51220000     0.25100
C693        C  0.70683053  0.06698984  0.50147113    -0.22900
C694        C  0.70346229  0.06114761  0.47557737     0.20000
F695        F  0.66353460  0.05430163  0.46481170    -0.12900
F696        F  0.73720559  0.05410354  0.43579085    -0.15300
F697        F  0.75248452  0.07976877  0.53718686    -0.15300
F698        F  0.82625516  0.08112552  0.50816916    -0.12900
C699        C  0.15557678  0.96548499  0.20947268     0.25100
C700        C  0.13766198  0.92556601  0.21818445    -0.23000
C701        C  0.11930099  0.92440755  0.24230643     0.20000
C702        C  0.11931637  0.96201485  0.25737477     0.25100
C703        C  0.13696645  0.00160284  0.24852876    -0.22900
C704        C  0.15498759  0.00315902  0.22449305     0.20000
F705        F  0.17279008  0.04103531  0.21575807    -0.12900
F706        F  0.17329589  0.96828545  0.18630387    -0.15300
F707        F  0.10233632  0.95975353  0.28073911    -0.15300
F708        F  0.10257613  0.88652916  0.25166860    -0.12900
C709        C  0.03744229  0.06958476  0.38809292     0.25100
C710        C  0.99578910  0.05250399  0.38187313    -0.23000
C711        C  0.98921925  0.03468098  0.35789122     0.20000
C712        C  0.02239718  0.03712813  0.33996260     0.25100
C713        C  0.06309763  0.05637974  0.34577043    -0.22900
C714        C  0.07100822  0.07106135  0.37022042     0.20000
F715        F  0.10993478  0.09029177  0.37620904    -0.12900
F716        F  0.04531546  0.08595833  0.41121812    -0.15300
F717        F  0.01400637  0.02272128  0.31646822    -0.15300
F718        F  0.94961603  0.01764262  0.35114052    -0.12900
C719        C  0.21878414  0.31997477  0.48029031     0.25100
C720        C  0.20160283  0.35904096  0.47021050    -0.23000
C721        C  0.22358180  0.39889082  0.47511884     0.20000
C722        C  0.26129262  0.39974623  0.49010962     0.25100
C723        C  0.27851196  0.36073072  0.50007993    -0.22900
C724        C  0.25718395  0.32078503  0.49486448     0.20000
F725        F  0.27288281  0.28264932  0.50443603    -0.12900
F726        F  0.19899549  0.28086206  0.47561345    -0.15300
F727        F  0.28156414  0.43875947  0.49445785    -0.15300
F728        F  0.20816036  0.43733820  0.46576847    -0.12900
C729        C  0.15898610  0.20195258  0.36519134     0.25100
C730        C  0.14741988  0.21003348  0.34022568    -0.23000
C731        C  0.13640479  0.25292650  0.33289051     0.20000
C732        C  0.13465418  0.28672145  0.35058377     0.25100
C733        C  0.14290267  0.27767572  0.37587450    -0.22900
C734        C  0.15630119  0.23532779  0.38287033     0.20000
F735        F  0.16462678  0.22569181  0.40714782    -0.12900
F736        F  0.17006853  0.16098371  0.37288042    -0.15300
F737        F  0.12148485  0.32731579  0.34332168    -0.15300
F738        F  0.12656556  0.26189836  0.30872999    -0.12900
C739        C  0.88250133  0.43506570  0.23946803     0.25100
C740        C  0.84299089  0.41803782  0.24929757    -0.23000
C741        C  0.80316014  0.43949103  0.24354429     0.20000
C742        C  0.80278378  0.47693597  0.22844432     0.25100
C743        C  0.84223896  0.49453996  0.21910608    -0.22900
C744        C  0.88216136  0.47324494  0.22475075     0.20000
F745        F  0.92074755  0.48875939  0.21550148    -0.12900
F746        F  0.92157791  0.41534541  0.24451333    -0.15300
F747        F  0.76369503  0.49664916  0.22340774    -0.15300
F748        F  0.76420708  0.42377919  0.25217895    -0.12900
C749        C  0.91214722  0.34343366  0.37041280     0.25100
C750        C  0.91874825  0.35933933  0.34611917    -0.23000
C751        C  0.95871705  0.37958998  0.34002800     0.20000
C752        C  0.99259104  0.38200204  0.35750771     0.25100
C753        C  0.98736691  0.36346181  0.38141888    -0.22900
C754        C  0.94635818  0.34520980  0.38794095     0.20000
F755        F  0.93975104  0.32797392  0.41096786    -0.12900
F756        F  0.87399569  0.32277618  0.37648552    -0.15300
F757        F  0.03153565  0.39988959  0.35032307    -0.15300
F758        F  0.96580547  0.39487605  0.31658886    -0.12900
C759        C  0.81814046  0.17586778  0.38017383     0.25100
C760        C  0.84150071  0.13743883  0.37472786    -0.23000
C761        C  0.85890073  0.13152066  0.35070691     0.20000
C762        C  0.85570433  0.16505586  0.33292165     0.25100
C763        C  0.83455643  0.20484584  0.33883497    -0.22900
C764        C  0.81416446  0.20905323  0.36235007     0.20000
F765        F  0.79279510  0.24645559  0.36883095    -0.12900
F766        F  0.80092322  0.18209979  0.40325286    -0.15300
F767        F  0.87450836  0.15907151  0.31023058    -0.15300
F768        F  0.88223283  0.09482271  0.34514872    -0.12900
C769        C  0.28107611  0.07439613  0.97184553     0.25100
C770        C  0.27791445  0.07523873  0.99796348    -0.23000
C771        C  0.23608411  0.07570375  0.00915092     0.20000
C772        C  0.19794395  0.07520593  0.99445749     0.25100
C773        C  0.20103517  0.07278445  0.96837500    -0.22900
C774        C  0.24290121  0.07245556  0.95715663     0.20000
F775        F  0.24678823  0.07044946  0.93196831    -0.12900
F776        F  0.32112375  0.07350587  0.96062897    -0.15300
F777        F  0.15795587  0.07517806  0.00573962    -0.15300
F778        F  0.23221497  0.07667747  0.03435810    -0.12900
C779        C  0.59524393  0.98341588  0.22568140     0.25100
C780        C  0.63517272  0.00001764  0.21619503    -0.23000
C781        C  0.67456748  0.97766366  0.22174600     0.20000
C782        C  0.67414584  0.93986402  0.23646416     0.25100
C783        C  0.63431499  0.92294147  0.24568845    -0.22900
C784        C  0.59479799  0.94496021  0.24011648     0.20000
F785        F  0.55592701  0.93001592  0.24927674    -0.12900
F786        F  0.55656773  0.00389884  0.22063814    -0.15300
F787        F  0.71286428  0.91933653  0.24138844    -0.15300
F788        F  0.71389096  0.99286355  0.21333871    -0.12900
C789        C  0.72069766  0.23068824  0.25367014     0.25100
C790        C  0.76390560  0.24154941  0.24655648    -0.23000
C791        C  0.78249927  0.22054799  0.22566081     0.20000
C792        C  0.75878699  0.18888926  0.21249768     0.25100
C793        C  0.71580134  0.17757918  0.21980789    -0.22900
C794        C  0.69699603  0.19898203  0.24052179     0.20000
F795        F  0.65558142  0.18917530  0.24826978    -0.12900
F796        F  0.70156620  0.24974026  0.27380963    -0.15300
F797        F  0.77764457  0.17038853  0.19211225    -0.15300
F798        F  0.82371761  0.23073685  0.21773947    -0.12900
C799        C  0.53397500  0.07593665  0.07841298     0.25100
C800        C  0.49322392  0.05707482  0.08493545    -0.23000
C801        C  0.48895502  0.03651496  0.10835912     0.20000
C802        C  0.52332987  0.03814488  0.12559068     0.25100
C803        C  0.56283317  0.05944976  0.11963184    -0.22900
C804        C  0.56866024  0.07684900  0.09562943     0.20000
F805        F  0.60638458  0.09837015  0.08967769    -0.12900
F806        F  0.53977663  0.09490531  0.05575658    -0.15300
F807        F  0.51707290  0.02135890  0.14877207    -0.15300
F808        F  0.45042844  0.01761523  0.11542093    -0.12900
C809        C  0.37838865  0.44565221  0.22721792     0.25100
C810        C  0.33908068  0.42426574  0.22056191    -0.23000
C811        C  0.29881571  0.44105412  0.22934580     0.20000
C812        C  0.29790528  0.47842012  0.24455017     0.25100
C813        C  0.33721838  0.50033698  0.25089493    -0.22900
C814        C  0.37745347  0.48357845  0.24199417     0.20000
F815        F  0.41608003  0.50347183  0.24794876    -0.12900
F816        F  0.41769607  0.43055629  0.21881391    -0.15300
F817        F  0.25838964  0.49370635  0.25256695    -0.15300
F818        F  0.26026771  0.42078655  0.22356476    -0.12900
C819        C  0.22151206  0.23319866  0.21409313     0.25100
C820        C  0.26402089  0.24560890  0.22179939    -0.23000
C821        C  0.28251745  0.22503900  0.24292533     0.20000
C822        C  0.25920087  0.19270486  0.25586711     0.25100
C823        C  0.21683416  0.18006663  0.24800623    -0.22900
C824        C  0.19830350  0.20078395  0.22696262     0.20000
F825        F  0.15759935  0.18953918  0.21858971    -0.12900
F826        F  0.20265939  0.25138648  0.19359562    -0.15300
F827        F  0.27770082  0.17488505  0.27657774    -0.15300
F828        F  0.32320340  0.23636166  0.25130178    -0.12900
C829        C  0.35684552  0.14038199  0.11764632     0.25100
C830        C  0.34092278  0.14760172  0.09339205    -0.23000
C831        C  0.32074365  0.18758674  0.08752950     0.20000
C832        C  0.31792383  0.22069785  0.10536667     0.25100
C833        C  0.33598780  0.21458981  0.12935629    -0.22900
C834        C  0.35467909  0.17378893  0.13549563     0.20000
F835        F  0.37180997  0.16658666  0.15852221    -0.12900
F836        F  0.37769503  0.10232406  0.12344119    -0.15300
F837        F  0.29998395  0.25970533  0.09855739    -0.15300
F838        F  0.30548055  0.19523712  0.06411654    -0.12900
C839        C  0.71314425  0.31835430  0.98522846     0.25100
C840        C  0.69873899  0.35721875  0.99694104    -0.23000
C841        C  0.72334129  0.39601250  0.99337919     0.20000
C842        C  0.76129781  0.39589662  0.97868928     0.25100
C843        C  0.77612111  0.35698684  0.96753206    -0.22900
C844        C  0.75175761  0.31820448  0.97084079     0.20000
F845        F  0.76461657  0.28050755  0.95950623    -0.12900
F846        F  0.69032922  0.28034202  0.98796792    -0.15300
F847        F  0.78412386  0.43388315  0.97569324    -0.15300
F848        F  0.71036948  0.43450339  0.00378261    -0.12900
C849        C  0.66321773  0.24135776  0.08642090     0.25100
C850        C  0.64459605  0.28174970  0.09307990    -0.23000
C851        C  0.63198449  0.28916453  0.11790942     0.20000
C852        C  0.63422776  0.25507710  0.13533855     0.25100
C853        C  0.64978767  0.21349861  0.12816379    -0.22900
C854        C  0.66626282  0.20762650  0.10385542     0.20000
F855        F  0.68223420  0.16819995  0.09631189    -0.12900
F856        F  0.67597631  0.23372722  0.06255055    -0.15300
F857        F  0.61991602  0.26230586  0.15894746    -0.15300
F858        F  0.61370846  0.32800935  0.12469840    -0.12900
C859        C  0.49289971  0.38577224  0.11155906     0.25100
C860        C  0.48699441  0.36684154  0.08779704    -0.23000
C861        C  0.44524609  0.35000226  0.08141746     0.20000
C862        C  0.41087872  0.35020234  0.09890348     0.25100
C863        C  0.41793720  0.36667866  0.12309278    -0.22900
C864        C  0.45885514  0.38538558  0.12900185     0.20000
F865        F  0.46667439  0.40104324  0.15230029    -0.12900
F866        F  0.53262624  0.40208546  0.11864302    -0.15300
F867        F  0.37197253  0.33087454  0.09289927    -0.15300
F868        F  0.43797565  0.33236017  0.05853150    -0.12900
C869        C  0.72136042  0.89618868  0.97820903     0.25100
C870        C  0.69907523  0.85712801  0.97203557    -0.23000
C871        C  0.71632647  0.81690027  0.98052809     0.20000
C872        C  0.75560897  0.81577613  0.99438347     0.25100
C873        C  0.77773907  0.85490601  0.00047855    -0.22900
C874        C  0.75992841  0.89509642  0.99246265     0.20000
F875        F  0.78046279  0.93350752  0.99800103    -0.12900
F876        F  0.70549647  0.93570593  0.97073149    -0.15300
F877        F  0.77140026  0.77655959  0.00236074    -0.15300
F878        F  0.69582701  0.77855794  0.97486977    -0.12900
C879        C  0.46123580  0.94501159  0.00180574     0.25100
C880        C  0.45370386  0.98882312  0.99481007    -0.23000
C881        C  0.47877692  0.00695534  0.97523474     0.20000
C882        C  0.51114763  0.98222175  0.96333834     0.25100
C883        C  0.51906081  0.93854974  0.97051512    -0.22900
C884        C  0.49352128  0.92022017  0.98985904     0.20000
F885        F  0.49980934  0.87821436  0.99750195    -0.12900
F886        F  0.43843378  0.92628636  0.02079263    -0.15300
F887        F  0.53407392  0.00106686  0.94444338    -0.15300
F888        F  0.47229633  0.04891111  0.96754126    -0.12900
C889        C  0.38809863  0.94037111  0.73865288     0.25100
C890        C  0.34844076  0.92024872  0.74609171    -0.23000
C891        C  0.30835132  0.94042430  0.73952394     0.20000
C892        C  0.30779107  0.97959760  0.72593273     0.25100
C893        C  0.34729611  0.00021282  0.71883601    -0.22900
C894        C  0.38752796  0.98023527  0.72537751     0.20000
F895        F  0.42628093  0.99870873  0.71837914    -0.12900
F896        F  0.42740680  0.92213920  0.74479419    -0.15300
F897        F  0.26832517  0.99786466  0.72011230    -0.15300
F898        F  0.26934003  0.92184455  0.74599539    -0.12900
C899        C  0.41552614  0.84552755  0.86692689     0.25100
C900        C  0.42341693  0.86098384  0.84266125    -0.23000
C901        C  0.46398240  0.88064434  0.83710669     0.20000
C902        C  0.49690023  0.88338634  0.85522057     0.25100
C903        C  0.49014658  0.86561987  0.87919067    -0.22900
C904        C  0.44873011  0.84759630  0.88504324     0.20000
F905        F  0.44073388  0.83087587  0.90805195    -0.12900
F906        F  0.37706401  0.82498712  0.87247310    -0.15300
F907        F  0.53639035  0.90085171  0.84868394    -0.15300
F908        F  0.47249198  0.89524044  0.81368097    -0.12900
C909        C  0.23899080  0.56508824  0.00914999     0.25100
C910        C  0.19762618  0.57296682  0.99806729    -0.23000
C911        C  0.19554107  0.58091233  0.97227001     0.20000
C912        C  0.23393110  0.57970783  0.95774500     0.25100
C913        C  0.27512536  0.57189974  0.96888049    -0.22900
C914        C  0.27743347  0.56516088  0.99472652     0.20000
F915        F  0.31677770  0.55703286  0.00585878    -0.12900
F916        F  0.24222044  0.55749897  0.03403238    -0.15300
F917        F  0.23096198  0.58624651  0.93276892    -0.15300
F918        F  0.15615946  0.58799792  0.96097166    -0.12900
C919        C  0.48075831  0.50533037  0.99084673     0.25100
C920        C  0.45340420  0.48622127  0.97251858    -0.23000
C921        C  0.45968575  0.44180202  0.96632021     0.20000
C922        C  0.49235833  0.41718800  0.97811463     0.25100
C923        C  0.51946807  0.43626992  0.99655901    -0.22900
C924        C  0.51346544  0.48077453  0.00257625     0.20000
F925        F  0.53868531  0.50072996  0.02017802    -0.12900
F926        F  0.47629654  0.54809879  0.99748088    -0.15300
F927        F  0.49730062  0.37455301  0.97130525    -0.15300
F928        F  0.43505586  0.42214802  0.94834983    -0.12900
C929        C  0.31889679  0.68170599  0.87777260     0.25100
C930        C  0.33960961  0.64168995  0.87269857    -0.23000
C931        C  0.35710653  0.63403855  0.84885050     0.20000
C932        C  0.35652529  0.66727681  0.83080620     0.25100
C933        C  0.33776069  0.70836426  0.83629210    -0.22900
C934        C  0.31746851  0.71456545  0.85970717     0.20000
F935        F  0.29851664  0.75343541  0.86582670    -0.12900
F936        F  0.30175763  0.68967610  0.90070532    -0.15300
F937        F  0.37521294  0.65958215  0.80825757    -0.15300
F938        F  0.37794888  0.59568931  0.84371957    -0.12900
C939        C  0.59515324  0.48182481  0.74233446     0.25100
C940        C  0.63502584  0.50024346  0.75084603    -0.23000
C941        C  0.67486864  0.47992022  0.74403561     0.20000
C942        C  0.67495133  0.44239083  0.72901104     0.25100
C943        C  0.63519706  0.42355922  0.72077061    -0.22900
C944        C  0.59522894  0.44355866  0.72765766     0.20000
F945        F  0.55627963  0.42670784  0.71967424    -0.12900
F946        F  0.55605737  0.50022139  0.74869226    -0.15300
F947        F  0.71415351  0.42388450  0.72293108    -0.15300
F948        F  0.71408271  0.49684461  0.75156644    -0.12900
C949        C  0.56688231  0.57426154  0.87224016     0.25100
C950        C  0.56150120  0.55659390  0.84823154    -0.23000
C951        C  0.52259777  0.53402303  0.84238352     0.20000
C952        C  0.48824856  0.53170660  0.85961693     0.25100
C953        C  0.49184981  0.55289338  0.88291877    -0.22900
C954        C  0.53222068  0.57267616  0.88943651     0.20000
F955        F  0.53766530  0.59186094  0.91208432    -0.12900
F956        F  0.60413995  0.59656230  0.87825059    -0.15300
F957        F  0.45033345  0.51141765  0.85267418    -0.15300
F958        F  0.51691276  0.51639896  0.81934774    -0.12900
C959        C  0.65981740  0.73864506  0.88325456     0.25100
C960        C  0.64434276  0.78026324  0.87634850    -0.23000
C961        C  0.63270318  0.78817141  0.85137998     0.20000
C962        C  0.63325329  0.75384731  0.83399836     0.25100
C963        C  0.64634460  0.71149342  0.84129696    -0.22900
C964        C  0.66107877  0.70463418  0.86589254     0.20000
F965        F  0.67375158  0.66418270  0.87369227    -0.12900
F966        F  0.67123837  0.73027021  0.90728340    -0.15300
F967        F  0.61996758  0.76174696  0.81024961    -0.15300
F968        F  0.61712578  0.82803817  0.84433681    -0.12900
C969        C  0.73523888  0.57082634  0.50969164     0.25100
C970        C  0.77718987  0.56961655  0.49860248    -0.23000
C971        C  0.78040966  0.57040544  0.47247645     0.20000
C972        C  0.74230550  0.57108618  0.45767890     0.25100
C973        C  0.70035494  0.57255459  0.46875611    -0.22900
C974        C  0.69715971  0.57302887  0.49488835     0.20000
F975        F  0.65708223  0.57385518  0.50606001    -0.12900
F976        F  0.73118494  0.57029365  0.53489115    -0.15300
F977        F  0.74636042  0.57057098  0.43247581    -0.15300
F978        F  0.82045077  0.56886185  0.46128370    -0.12900
C979        C  0.97127279  0.49857931  0.47315760     0.25100
C980        C  0.95454995  0.48325412  0.49601509    -0.23000
C981        C  0.97190500  0.44460657  0.50638690     0.20000
C982        C  0.00538318  0.42182591  0.49416859     0.25100
C983        C  0.02207676  0.43713498  0.47127872    -0.22900
C984        C  0.00475321  0.47583360  0.46094562     0.20000
F985        F  0.01900828  0.49093364  0.43855173    -0.12900
F986        F  0.95503606  0.53561919  0.46251178    -0.15300
F987        F  0.02185425  0.38499686  0.50494163    -0.15300
F988        F  0.95795855  0.42984564  0.52892022    -0.12900
C989        C  0.12497874  0.49973402  0.74331664     0.25100
C990        C  0.13194329  0.49614503  0.71747866    -0.23000
C991        C  0.13746116  0.45426537  0.70686666     0.20000
C992        C  0.13618233  0.41667446  0.72183010     0.25100
C993        C  0.13062721  0.42042762  0.74769184    -0.22900
C994        C  0.12502610  0.46216120  0.75836641     0.20000
F995        F  0.11944201  0.46645087  0.78336036    -0.12900
F996        F  0.11993036  0.53971738  0.75411041    -0.15300
F997        F  0.14203141  0.37665984  0.71121161    -0.15300
F998        F  0.14382561  0.44973218  0.68195268    -0.12900
C999        C  0.26297359  0.68337729  0.71217779     0.25100
C1000       C  0.22068877  0.67170806  0.72058946    -0.23000
C1001       C  0.20319335  0.69354410  0.74150686     0.20000
C1002       C  0.22697219  0.72670963  0.75343001     0.25100
C1003       C  0.26905570  0.73878632  0.74487020    -0.22900
C1004       C  0.28684555  0.71651983  0.72415256     0.20000
F1005       F  0.32729244  0.72705705  0.71518326    -0.12900
F1006       F  0.28072096  0.66401165  0.69173244    -0.15300
F1007       F  0.20905403  0.74606955  0.77382722    -0.15300
F1008       F  0.16280995  0.68290898  0.75054007    -0.12900
C1009       C  0.06738906  0.57508988  0.59740772     0.25100
C1010       C  0.06145299  0.55813303  0.62151947    -0.23000
C1011       C  0.02216929  0.53631203  0.62736568     0.20000
C1012       C  0.98826660  0.53335309  0.60982796     0.25100
C1013       C  0.99270614  0.55311766  0.58618271    -0.22900
C1014       C  0.03320866  0.57277289  0.57987383     0.20000
F1015       F  0.03930188  0.59097229  0.55703760    -0.12900
F1016       F  0.10482684  0.59716663  0.59152096    -0.15300
F1017       F  0.95003689  0.51367279  0.61670825    -0.15300
F1018       F  0.01585908  0.51967345  0.65056982    -0.12900
C1019       C  0.88564027  0.97990686  0.74104077     0.25100
C1020       C  0.84546290  0.99650911  0.75018670    -0.23000
C1021       C  0.80638920  0.97321488  0.74501908     0.20000
C1022       C  0.80729464  0.93488114  0.73073081     0.25100
C1023       C  0.84729048  0.91834735  0.72155531    -0.22900
C1024       C  0.88656848  0.94088619  0.72706730     0.20000
F1025       F  0.92564825  0.92591860  0.71825113    -0.12900
F1026       F  0.92409429  0.00098769  0.74594415    -0.15300
F1027       F  0.76887107  0.91350045  0.72610605    -0.15300
F1028       F  0.76688978  0.98802152  0.75333807    -0.12900
C1029       C  0.78655372  0.70688950  0.73669597     0.25100
C1030       C  0.76688278  0.74000215  0.72198824    -0.23000
C1031       C  0.72062119  0.74145885  0.72055829     0.20000
C1032       C  0.69482625  0.71109097  0.73360900     0.25100
C1033       C  0.71456488  0.67832027  0.74854212    -0.22900
C1034       C  0.76079901  0.67654889  0.74970266     0.20000
F1035       F  0.78152191  0.64539420  0.76347438    -0.12900
F1036       F  0.83100280  0.70310245  0.73835698    -0.15300
F1037       F  0.65035509  0.71448134  0.73179668    -0.15300
F1038       F  0.69997447  0.77232870  0.70654450    -0.12900
C1039       C  0.85481019  0.66746125  0.63628676     0.25100
C1040       C  0.83839237  0.70915794  0.62998223    -0.23000
C1041       C  0.82105766  0.71600809  0.60589756     0.20000
C1042       C  0.82277618  0.68280645  0.58806731     0.25100
C1043       C  0.84098191  0.64191351  0.59402679    -0.22900
C1044       C  0.85577268  0.63392026  0.61844852     0.20000
F1045       F  0.87444891  0.59485448  0.62445275    -0.12900
F1046       F  0.87080828  0.65944818  0.65948741    -0.15300
F1047       F  0.80852221  0.69123839  0.56453933    -0.15300
F1048       F  0.80492862  0.75574315  0.59900226    -0.12900
C1049       C  0.20918325  0.83697909  0.47745191     0.25100
C1050       C  0.21058422  0.85132780  0.50241083    -0.23000
C1051       C  0.25179375  0.86249715  0.51287520     0.20000
C1052       C  0.29039227  0.86032953  0.49853618     0.25100
C1053       C  0.28846429  0.84776317  0.47339098    -0.22900
C1054       C  0.24767058  0.83582151  0.46301882     0.20000
F1055       F  0.24508992  0.82351534  0.43873003    -0.12900
F1056       F  0.17029055  0.82577197  0.46667512    -0.15300
F1057       F  0.32945314  0.87211184  0.50893385    -0.15300
F1058       F  0.25480884  0.87532595  0.53705865    -0.12900
C1059       C  0.01646372  0.97879656  0.50816153     0.25100
C1060       C  0.03063261  0.93786448  0.49905777    -0.23000
C1061       C  0.01145303  0.92131450  0.47703914     0.20000
C1062       C  0.97849445  0.94471246  0.46465048     0.25100
C1063       C  0.96399472  0.98542838  0.47384385    -0.22900
C1064       C  0.98356740  0.00232305  0.49569061     0.20000
F1065       F  0.97051863  0.04147058  0.50523962    -0.12900
F1066       F  0.03317781  0.99546111  0.52967270    -0.15300
F1067       F  0.96196043  0.92805583  0.44309851    -0.15300
F1068       F  0.02478862  0.88241797  0.46729102    -0.12900
C1069       C  0.13525674  0.78558525  0.62065737     0.25100
C1070       C  0.14975075  0.77922304  0.59608183    -0.23000
C1071       C  0.16976577  0.73947333  0.58946126     0.20000
C1072       C  0.17253223  0.70530643  0.60666616     0.25100
C1073       C  0.15418393  0.71006268  0.63062260    -0.22900
C1074       C  0.13722881  0.75111090  0.63781570     0.20000
F1075       F  0.12113886  0.75741012  0.66114500    -0.12900
F1076       F  0.11541887  0.82370535  0.62736705    -0.15300
F1077       F  0.19019631  0.66657208  0.59918061    -0.15300
F1078       F  0.18433851  0.73290910  0.56582927    -0.12900
C1079       C  0.96269044  0.88539725  0.63013381     0.25100
C1080       C  0.92431096  0.86165790  0.62463562    -0.23000
C1081       C  0.91972226  0.84224343  0.60102425     0.20000
C1082       C  0.95418466  0.84419162  0.58370412     0.25100
C1083       C  0.99373543  0.86619285  0.58958729    -0.22900
C1084       C  0.99684752  0.88819391  0.61271130     0.20000
F1085       F  0.03404160  0.91015842  0.61924172    -0.12900
F1086       F  0.96791952  0.90417621  0.65290982    -0.15300
F1087       F  0.94929944  0.82321965  0.56153900    -0.15300
F1088       F  0.88337062  0.81809611  0.59553828    -0.12900
loop_ 
_geom_bond_atom_site_label_1 
_geom_bond_atom_site_label_2 
_geom_bond_distance 
_geom_bond_site_symmetry_2 
_ccdc_geom_bond_type 
O1           Ni9   1.930       .  S
O1           C11   1.285       .  A
O2           Ni9   1.929       .  S
O2           C12   1.284       .  A
O3           Ni9   1.900       .  S
O3           C13   1.278       .  A
O4           Ni9   1.900       .  S
O4           C14   1.277       .  A
O5          Ni10   1.927       .  S
O5           C14   1.284       .  A
O6          Ni10   1.922       .  S
O6           C13   1.281       .  A
O7          Ni10   1.925       .  S
O7           C12   1.283       .  A
O8          Ni10   1.913       .  S
O8           C11   1.280       .  A
Ni9         Ni10   2.386       .  S
C11        C1083   1.490   1_455  S
C12        C1050   1.491       .  S
C13        C1070   1.465       .  S
C14        C1060   1.482       .  S
O15         Ni23   1.930       .  S
O15          C25   1.285       .  A
O16         Ni23   1.932       .  S
O16          C26   1.284       .  A
O17         Ni23   1.905       .  S
O17          C27   1.278       .  A
O18         Ni23   1.904       .  S
O18          C28   1.277       .  A
O19         Ni24   1.933       .  S
O19          C28   1.284       .  A
O20         Ni24   1.929       .  S
O20          C27   1.285       .  A
O21         Ni24   1.912       .  S
O21          C26   1.280       .  A
O22         Ni24   1.897       .  S
O22          C25   1.277       .  A
Ni23        Ni24   2.387       .  S
C25        C1040   1.477       .  S
C26        C1023   1.481       .  S
C27        C1030   1.491       .  S
C28        C1080   1.473       .  S
O29         Ni37   1.923       .  S
O29          C39   1.284       .  A
O30         Ni37   1.923       .  S
O30          C40   1.282       .  A
O31         Ni37   1.896       .  S
O31          C41   1.277       .  A
O32         Ni37   1.904       .  S
O32          C42   1.278       .  A
O33         Ni38   1.927       .  S
O33          C42   1.283       .  A
O34         Ni38   1.926       .  S
O34          C41   1.284       .  A
O35         Ni38   1.916       .  S
O35          C40   1.281       .  A
O36         Ni38   1.902       .  S
O36          C39   1.278       .  A
Ni37        Ni38   2.388       .  S
C39        C1073   1.476       .  S
C40         C990   1.478       .  S
C41        C1000   1.481       .  S
C42        C1010   1.470       .  S
O43         Ni51   1.928       .  S
O43          C53   1.284       .  A
O44         Ni51   1.926       .  S
O44          C54   1.283       .  A
O45         Ni51   1.899       .  S
O45          C55   1.278       .  A
O46         Ni51   1.893       .  S
O46          C56   1.276       .  A
O47         Ni52   1.924       .  S
O47          C56   1.284       .  A
O48         Ni52   1.922       .  S
O48          C55   1.282       .  A
O49         Ni52   1.923       .  S
O49          C54   1.282       .  A
O50         Ni52   1.907       .  S
O50          C53   1.279       .  A
Ni51        Ni52   2.389       .  S
C53        C1013   1.484       .  S
C54         C970   1.481       .  S
C55        C1043   1.466       .  S
C56         C980   1.473       .  S
O57         Ni65   1.931       .  S
O57          C67   1.285       .  A
O58         Ni65   1.933       .  S
O58          C68   1.285       .  A
O59         Ni65   1.903       .  S
O59          C69   1.278       .  A
O60         Ni65   1.905       .  S
O60          C70   1.278       .  A
O61         Ni66   1.927       .  S
O61          C70   1.285       .  A
O62         Ni66   1.930       .  S
O62          C69   1.283       .  A
O63         Ni66   1.915       .  S
O63          C68   1.281       .  A
O64         Ni66   1.901       .  S
O64          C67   1.277       .  A
Ni65        Ni66   2.386       .  S
C67         C963   1.477       .  S
C68         C940   1.489       .  S
C69         C950   1.470       .  S
C70        C1033   1.490       .  S
O71         Ni79   1.928       .  S
O71          C81   1.285       .  A
O72         Ni79   1.927       .  S
O72          C82   1.283       .  A
O73         Ni79   1.894       .  S
O73          C83   1.276       .  A
O74         Ni79   1.902       .  S
O74          C84   1.278       .  A
O75         Ni80   1.922       .  S
O75          C84   1.282       .  A
O76         Ni80   1.922       .  S
O76          C83   1.284       .  A
O77         Ni80   1.921       .  S
O77          C82   1.281       .  A
O78         Ni80   1.907       .  S
O78          C81   1.279       .  A
Ni79        Ni80   2.387       .  S
C81         C953   1.484       .  S
C82         C913   1.477       .  S
C83         C920   1.481       .  S
C84         C930   1.467       .  S
O85         Ni93   1.938       .  S
O85          C95   1.287       .  A
O86         Ni93   1.941       .  S
O86          C96   1.286       .  A
O87         Ni93   1.898       .  S
O87          C97   1.277       .  A
O88         Ni93   1.901       .  S
O88          C98   1.277       .  A
O89         Ni94   1.923       .  S
O89          C98   1.284       .  A
O90         Ni94   1.927       .  S
O90          C97   1.283       .  A
O91         Ni94   1.911       .  S
O91          C96   1.280       .  A
O92         Ni94   1.896       .  S
O92          C95   1.276       .  A
Ni93        Ni94   2.387       .  S
C95         C933   1.483       .  S
C96         C890   1.490       .  S
C97         C900   1.469       .  S
C98        C1003   1.482       .  S
O99        Ni107   1.929       .  S
O99         C109   1.285       .  A
O100       Ni107   1.929       .  S
O100        C110   1.284       .  A
O101       Ni107   1.895       .  S
O101        C111   1.276       .  A
O102       Ni107   1.894       .  S
O102        C112   1.277       .  A
O103       Ni108   1.927       .  S
O103        C112   1.283       .  A
O104       Ni108   1.922       .  S
O104        C111   1.284       .  A
O105       Ni108   1.915       .  S
O105        C110   1.281       .  A
O106       Ni108   1.902       .  S
O106        C109   1.278       .  A
Ni107      Ni108   2.387       .  S
C109        C903   1.481       .  S
C110        C870   1.485       .  S
C111        C883   1.481       .  S
C112        C960   1.468       .  S
O113       Ni121   1.935       .  S
O113        C123   1.286       .  A
O114       Ni121   1.932       .  S
O114        C124   1.284       .  A
O115       Ni121   1.898       .  S
O115        C125   1.278       .  A
O116       Ni121   1.897       .  S
O116        C126   1.277       .  A
O117       Ni122   1.917       .  S
O117        C126   1.283       .  A
O118       Ni122   1.922       .  S
O118        C125   1.281       .  A
O119       Ni122   1.911       .  S
O119        C124   1.280       .  A
O120       Ni122   1.903       .  S
O120        C123   1.278       .  A
Ni121      Ni122   2.386       .  S
C123        C860   1.485       .  S
C124        C840   1.489   1_554  S
C125        C850   1.465       .  S
C126        C923   1.480   1_554  S
O127       Ni135   1.928       .  S
O127        C137   1.285       .  A
O128       Ni135   1.929       .  S
O128        C138   1.284       .  A
O129       Ni135   1.899       .  S
O129        C139   1.277       .  A
O130       Ni135   1.897       .  S
O130        C140   1.277       .  A
O131       Ni136   1.934       .  S
O131        C140   1.285       .  A
O132       Ni136   1.927       .  S
O132        C139   1.285       .  A
O133       Ni136   1.914       .  S
O133        C138   1.280       .  A
O134       Ni136   1.896       .  S
O134        C137   1.276       .  A
Ni135      Ni136   2.388       .  S
C137        C833   1.476       .  S
C138        C810   1.481       .  S
C139        C820   1.483       .  S
C140        C863   1.474       .  S
O141       Ni149   1.928       .  S
O141        C151   1.285       .  A
O142       Ni149   1.929       .  S
O142        C152   1.284       .  A
O143       Ni149   1.894       .  S
O143        C153   1.276       .  A
O144       Ni149   1.895       .  S
O144        C154   1.277       .  A
O145       Ni150   1.926       .  S
O145        C154   1.283       .  A
O146       Ni150   1.921       .  S
O146        C153   1.284       .  A
O147       Ni150   1.911       .  S
O147        C152   1.280       .  A
O148       Ni150   1.898       .  S
O148        C151   1.277       .  A
Ni149      Ni150   2.388       .  S
C151        C853   1.475       .  S
C152        C780   1.486       .  S
C153        C793   1.478       .  S
C154        C803   1.465       .  S
O155       Ni163   1.926       .  S
O155        C165   1.284       .  A
O156       Ni163   1.926       .  S
O156        C166   1.283       .  A
O157       Ni163   1.900       .  S
O157        C167   1.278       .  A
O158       Ni163   1.893       .  S
O158        C168   1.276       .  A
O159       Ni164   1.921       .  S
O159        C168   1.284       .  A
O160       Ni164   1.920       .  S
O160        C167   1.281       .  A
O161       Ni164   1.914       .  S
O161        C166   1.280       .  A
O162       Ni164   1.902       .  S
O162        C165   1.278       .  A
Ni163      Ni164   2.388       .  S
C165        C800   1.480       .  S
C166        C770   1.475   1_554  S
C167        C830   1.464       .  S
C168        C880   1.479   1_544  S
O169       Ni177   1.931       .  S
O169        C179   1.285       .  A
O170       Ni177   1.931       .  S
O170        C180   1.284       .  A
O171       Ni177   1.896       .  S
O171        C181   1.277       .  A
O172       Ni177   1.896       .  S
O172        C182   1.277       .  A
O173       Ni178   1.919       .  S
O173        C182   1.283       .  A
O174       Ni178   1.925       .  S
O174        C181   1.282       .  A
O175       Ni178   1.918       .  S
O175        C180   1.282       .  A
O176       Ni178   1.907       .  S
O176        C179   1.279       .  A
Ni177      Ni178   2.387       .  S
C179        C763   1.486       .  S
C180        C740   1.490       .  S
C181        C750   1.465       .  S
C182        C790   1.478       .  S
O183       Ni191   1.932       .  S
O183        C193   1.285       .  A
O184       Ni191   1.930       .  S
O184        C194   1.284       .  A
O185       Ni191   1.895       .  S
O185        C195   1.276       .  A
O186       Ni191   1.894       .  S
O186        C196   1.277       .  A
O187       Ni192   1.928       .  S
O187        C196   1.283       .  A
O188       Ni192   1.923       .  S
O188        C195   1.284       .  A
O189       Ni192   1.910       .  S
O189        C194   1.279       .  A
O190       Ni192   1.896       .  S
O190        C193   1.277       .  A
Ni191      Ni192   2.388       .  S
C193        C753   1.480   1_455  S
C194        C720   1.485       .  S
C195        C983   1.474       .  S
C196        C733   1.471       .  S
O197       Ni205   1.928       .  S
O197        C207   1.284       .  A
O198       Ni205   1.928       .  S
O198        C208   1.282       .  A
O199       Ni205   1.902       .  S
O199        C209   1.278       .  A
O200       Ni205   1.896       .  S
O200        C210   1.277       .  A
O201       Ni206   1.928       .  S
O201        C210   1.285       .  A
O202       Ni206   1.928       .  S
O202        C209   1.283       .  A
O203       Ni206   1.918       .  S
O203        C208   1.280       .  A
O204       Ni206   1.902       .  S
O204        C207   1.278       .  A
Ni205      Ni206   2.389       .  S
C207        C730   1.474       .  S
C208        C703   1.474       .  S
C209        C713   1.471       .  S
C210        C823   1.482       .  S
O211       Ni219   1.931       .  S
O211        C221   1.285       .  A
O212       Ni219   1.931       .  S
O212        C222   1.284       .  A
O213       Ni219   1.902       .  S
O213        C223   1.277       .  A
O214       Ni219   1.906       .  S
O214        C224   1.279       .  A
O215       Ni220   1.926       .  S
O215        C224   1.282       .  A
O216       Ni220   1.927   1_565  S
O216        C223   1.285   1_565  A
O217       Ni220   1.918       .  S
O217        C222   1.281       .  A
O218       Ni220   1.902       .  S
O218        C221   1.278       .  A
Ni219      Ni220   2.388       .  S
C221        C710   1.480       .  S
C222        C690   1.484       .  S
C223       C1063   1.482   1_545  S
C224        C760   1.471       .  S
O225       Ni233   1.930       .  S
O225        C235   1.285       .  A
O226       Ni233   1.932       .  S
O226        C236   1.284       .  A
O227       Ni233   1.896       .  S
O227        C237   1.277       .  A
O228       Ni233   1.898       .  S
O228        C238   1.277       .  A
O229       Ni234   1.925       .  S
O229        C238   1.284       .  A
O230       Ni234   1.930       .  S
O230        C237   1.284       .  A
O231       Ni234   1.917       .  S
O231        C236   1.281       .  A
O232       Ni234   1.902       .  S
O232        C235   1.277       .  A
Ni233      Ni234   2.386       .  S
C235        C680   1.483       .  S
C236        C943   1.487       .  S
C237        C670   1.470       .  S
C238        C660   1.484       .  S
O239       Ni247   1.927       .  S
O239        C249   1.284       .  A
O240       Ni247   1.925       .  S
O240        C250   1.283       .  A
O241       Ni247   1.896       .  S
O241        C251   1.277       .  A
O242       Ni247   1.896       .  S
O242        C252   1.277       .  A
O243       Ni248   1.933       .  S
O243        C252   1.284       .  A
O244       Ni248   1.926       .  S
O244        C251   1.285       .  A
O245       Ni248   1.917       .  S
O245        C250   1.281       .  A
O246       Ni248   1.903       .  S
O246        C249   1.278       .  A
Ni247      Ni248   2.388       .  S
C249        C673   1.478       .  S
C250        C723   1.479       .  S
C251        C643   1.484       .  S
C252        C653   1.471       .  S
O253       Ni261   1.936       .  S
O253        C263   1.286       .  A
O254       Ni261   1.936       .  S
O254        C264   1.285       .  A
O255       Ni261   1.897       .  S
O255        C265   1.277       .  A
O256       Ni261   1.900       .  S
O256        C266   1.278       .  A
O257       Ni262   1.923       .  S
O257        C266   1.283       .  A
O258       Ni262   1.926       .  S
O258        C265   1.283       .  A
O259       Ni262   1.917       .  S
O259        C264   1.281       .  A
O260       Ni262   1.904       .  S
O260        C263   1.278       .  A
Ni261      Ni262   2.387       .  S
C263        C650   1.486       .  S
C264        C893   1.489       .  S
C265        C633   1.468       .  S
C266        C620   1.480       .  S
O267       Ni275   1.925       .  S
O267        C277   1.284       .  A
O268       Ni275   1.925       .  S
O268        C278   1.282       .  A
O269       Ni275   1.896       .  S
O269        C279   1.277       .  A
O270       Ni275   1.902       .  S
O270        C280   1.278       .  A
O271       Ni276   1.921       .  S
O271        C280   1.281       .  A
O272       Ni276   1.923   1_565  S
O272        C279   1.284   1_565  A
O273       Ni276   1.922       .  S
O273        C278   1.281       .  A
O274       Ni276   1.907       .  S
O274        C277   1.279       .  A
Ni275      Ni276   2.390       .  S
C277        C630   1.478       .  S
C278        C693   1.477       .  S
C279        C610   1.473   1_545  S
C280        C683   1.465       .  S
O281       Ni289   1.925       .  S
O281        C291   1.283       .  A
O282       Ni289   1.923       .  S
O282        C292   1.282       .  A
O283       Ni289   1.900       .  S
O283        C293   1.278       .  A
O284       Ni289   1.902       .  S
O284        C294   1.279       .  A
O285       Ni290   1.918       .  S
O285        C294   1.281       .  A
O286       Ni290   1.921       .  S
O286        C293   1.283       .  A
O287       Ni290   1.915       .  S
O287        C292   1.280       .  A
O288       Ni290   1.903       .  S
O288        C291   1.279       .  A
Ni289      Ni290   2.390       .  S
C291        C600   1.477       .  S
C292        C993   1.472       .  S
C293        C623   1.478       .  S
C294        C590   1.466       .  S
O295       Ni303   1.928       .  S
O295        C305   1.285       .  A
O296       Ni303   1.929       .  S
O296        C306   1.284       .  A
O297       Ni303   1.895       .  S
O297        C307   1.277       .  A
O298       Ni303   1.898       .  S
O298        C308   1.277       .  A
O299       Ni304   1.926       .  S
O299        C308   1.284       .  A
O300       Ni304   1.931       .  S
O300        C307   1.284       .  A
O301       Ni304   1.911       .  S
O301        C306   1.279       .  A
O302       Ni304   1.896       .  S
O302        C305   1.277       .  A
Ni303      Ni304   2.389       .  S
C305        C593   1.475       .  S
C306        C843   1.477       .  S
C307        C583   1.470       .  S
C308        C570   1.479       .  S
O309       Ni317   1.932       .  S
O309        C319   1.285       .  A
O310       Ni317   1.932       .  S
O310        C320   1.284       .  A
O311       Ni317   1.900       .  S
O311        C321   1.277       .  A
O312       Ni317   1.899       .  S
O312        C322   1.277       .  A
O313       Ni318   1.926       .  S
O313        C322   1.283       .  A
O314       Ni318   1.923       .  S
O314        C321   1.284       .  A
O315       Ni318   1.912       .  S
O315        C320   1.280       .  A
O316       Ni318   1.900       .  S
O316        C319   1.277       .  A
Ni317      Ni318   2.387       .  S
C319        C580   1.478       .  S
C320       C1020   1.488   1_545  S
C321        C663   1.484       .  S
C322        C563   1.467       .  S
O323       Ni331   1.924       .  S
O323        C333   1.284       .  A
O324       Ni331   1.924       .  S
O324        C334   1.282       .  A
O325       Ni331   1.898       .  S
O325        C335   1.278       .  A
O326       Ni331   1.895       .  S
O326        C336   1.276       .  A
O327       Ni332   1.926   1_565  S
O327        C336   1.285   1_565  A
O328       Ni332   1.924       .  S
O328        C335   1.282       .  A
O329       Ni332   1.918       .  S
O329        C334   1.280       .  A
O330       Ni332   1.904       .  S
O330        C333   1.278       .  A
Ni331      Ni332   2.388       .  S
C333        C560   1.480   1_455  S
C334        C773   1.477       .  S
C335        C603   1.467       .  S
C336        C550   1.484   1_545  S
O337       Ni345   1.924       .  S
O337        C347   1.284       .  A
O338       Ni345   1.922       .  S
O338        C348   1.283       .  A
O339       Ni345   1.896       .  S
O339        C349   1.277       .  A
O340       Ni345   1.896       .  S
O340        C350   1.277       .  A
O341       Ni346   1.927       .  S
O341        C350   1.283       .  A
O342       Ni346   1.922       .  S
O342        C349   1.283       .  A
O343       Ni346   1.920       .  S
O343        C348   1.282       .  A
O344       Ni346   1.904       .  S
O344        C347   1.279       .  A
Ni345      Ni346   2.389       .  S
C347        C540   1.478       .  S
C348        C813   1.485       .  S
C349        C520   1.475       .  S
C350        C533   1.466       .  S
O351       Ni359   1.931       .  S
O351        C361   1.285       .  A
O352       Ni359   1.931       .  S
O352        C362   1.284       .  A
O353       Ni359   1.899       .  S
O353        C363   1.277       .  A
O354       Ni359   1.893       .  S
O354        C364   1.276       .  A
O355       Ni360   1.927       .  S
O355        C364   1.285       .  A
O356       Ni360   1.926       .  S
O356        C363   1.283       .  A
O357       Ni360   1.916       .  S
O357        C362   1.280       .  A
O358       Ni360   1.900       .  S
O358        C361   1.277       .  A
Ni359      Ni360   2.387       .  S
C361        C530   1.481       .  S
C362        C973   1.481       .  S
C363        C510   1.469       .  S
C364        C640   1.483       .  S
O365       Ni373   1.935       .  S
O365        C375   1.286       .  A
O366       Ni373   1.934       .  S
O366        C376   1.284       .  A
O367       Ni373   1.899       .  S
O367        C377   1.277       .  A
O368       Ni373   1.894       .  S
O368        C378   1.276       .  A
O369       Ni374   1.924       .  S
O369        C378   1.284       .  A
O370       Ni374   1.923       .  S
O370        C377   1.282       .  A
O371       Ni374   1.917       .  S
O371        C376   1.280       .  A
O372       Ni374   1.903       .  S
O372        C375   1.278       .  A
Ni373      Ni374   2.390       .  S
C375        C503   1.482       .  S
C376       C1053   1.478       .  S
C377        C543   1.465       .  S
C378        C613   1.471       .  S
O379       Ni387   1.929       .  S
O379        C389   1.284       .  A
O380       Ni387   1.930       .  S
O380        C390   1.284       .  A
O381       Ni387   1.908       .  S
O381        C391   1.279       .  A
O382       Ni387   1.904       .  S
O382        C392   1.279       .  A
O383       Ni388   1.925       .  S
O383        C392   1.282       .  A
O384       Ni388   1.920       .  S
O384        C391   1.283       .  A
O385       Ni388   1.913       .  S
O385        C390   1.280       .  A
O386       Ni388   1.900       .  S
O386        C389   1.278       .  A
Ni387      Ni388   2.387       .  S
C389        C513   1.479       .  S
C390        C783   1.481       .  S
C391        C490   1.488       .  S
C392        C500   1.471       .  S
O393       Ni401   1.928       .  S
O393        C403   1.284       .  A
O394       Ni401   1.927       .  S
O394        C404   1.284       .  A
O395       Ni401   1.897       .  S
O395        C405   1.277       .  A
O396       Ni401   1.896       .  S
O396        C406   1.276       .  A
O397       Ni402   1.922       .  S
O397        C406   1.284       .  A
O398       Ni402   1.923       .  S
O398        C405   1.282       .  A
O399       Ni402   1.920       .  S
O399        C404   1.282       .  A
O400       Ni402   1.903       .  S
O400        C403   1.278       .  A
Ni401      Ni402   2.388       .  S
C403        C483   1.481       .  S
C404        C700   1.490       .  S
C405        C470   1.464       .  S
C406        C523   1.474       .  S
O407       Ni415   1.935       .  S
O407        C417   1.286       .  A
O408       Ni415   1.935       .  S
O408        C418   1.285       .  A
O409       Ni415   1.900       .  S
O409        C419   1.277       .  A
O410       Ni415   1.900       .  S
O410        C420   1.277       .  A
O411       Ni416   1.929       .  S
O411        C420   1.284       .  A
O412       Ni416   1.923       .  S
O412        C419   1.284       .  A
O413       Ni416   1.908       .  S
O413        C418   1.279       .  A
O414       Ni416   1.892       .  S
O414        C417   1.276       .  A
Ni415      Ni416   2.387       .  S
C417        C473   1.482       .  S
C418        C873   1.482       .  S
C419        C553   1.485   1_554  S
C420        C460   1.470       .  S
O421       Ni429   1.933       .  S
O421        C431   1.285       .  A
O422       Ni429   1.935       .  S
O422        C432   1.285       .  A
O423       Ni429   1.898       .  S
O423        C433   1.277       .  A
O424       Ni429   1.902       .  S
O424        C434   1.278       .  A
O425       Ni430   1.925       .  S
O425        C434   1.282       .  A
O426       Ni430   1.925       .  S
O426        C433   1.285       .  A
O427       Ni430   1.911       .  S
O427        C432   1.279       .  A
O428       Ni430   1.895       .  S
O428        C431   1.276       .  A
Ni429      Ni430   2.388       .  S
C431        C450   1.477   1_455  S
C432        C910   1.483   1_554  S
C433        C573   1.479   1_554  S
C434        C480   1.467       .  S
O435       Ni443   1.927       .  S
O435        C445   1.284       .  A
O436       Ni443   1.929       .  S
O436        C446   1.283       .  A
O437       Ni443   1.896       .  S
O437        C447   1.277       .  A
O438       Ni443   1.902       .  S
O438        C448   1.278       .  A
O439       Ni444   1.923       .  S
O439        C448   1.283       .  A
O440       Ni444   1.925       .  S
O440        C447   1.282       .  A
O441       Ni444   1.921       .  S
O441        C446   1.282       .  A
O442       Ni444   1.906       .  S
O442        C445   1.279       .  A
Ni443      Ni444   2.387       .  S
C445        C463   1.482       .  S
C446        C743   1.485       .  S
C447        C453   1.466       .  S
C448        C493   1.488       .  S
C449        C450   1.410       .  A
C449        C454   1.392       .  A
C449        F456   1.358   1_655  S
C450        C451   1.407       .  A
C451        C452   1.402       .  A
C451        F458   1.358       .  S
C452        C453   1.407       .  A
C452        F457   1.358       .  S
C453        C454   1.400       .  A
C454        F455   1.358       .  S
C459        C460   1.405       .  A
C459        C464   1.401       .  A
C459        F466   1.358       .  S
C460        C461   1.402       .  A
C461        C462   1.396       .  A
C461        F468   1.358       .  S
C462        C463   1.411       .  A
C462        F467   1.358       .  S
C463        C464   1.409       .  A
C464        F465   1.358       .  S
C469        C470   1.398       .  A
C469        C474   1.392   1_455  A
C469        F476   1.358       .  S
C470        C471   1.406       .  A
C471        C472   1.402       .  A
C471        F478   1.358       .  S
C472        C473   1.409   1_455  A
C472        F477   1.358       .  S
C473        C474   1.413       .  A
C474        F475   1.358       .  S
C479        C480   1.401       .  A
C479        C484   1.395       .  A
C479        F486   1.358       .  S
C480        C481   1.405       .  A
C481        C482   1.401       .  A
C481        F488   1.358       .  S
C482        C483   1.408       .  A
C482        F487   1.358       .  S
C483        C484   1.411       .  A
C484        F485   1.358       .  S
C489        C490   1.412       .  A
C489        C494   1.399       .  A
C489        F496   1.358       .  S
C490        C491   1.408       .  A
C491        C492   1.396       .  A
C491        F498   1.358       .  S
C492        C493   1.412       .  A
C492        F497   1.358       .  S
C493        C494   1.409       .  A
C494        F495   1.358       .  S
C499        C500   1.402       .  A
C499        C504   1.397       .  A
C499        F506   1.358       .  S
C500        C501   1.406       .  A
C501        C502   1.401       .  A
C501        F508   1.358       .  S
C502        C503   1.407       .  A
C502        F507   1.358       .  S
C503        C504   1.411       .  A
C504        F505   1.358       .  S
C509        C510   1.402       .  A
C509        C514   1.394       .  A
C509        F516   1.358       .  S
C510        C511   1.406       .  A
C511        C512   1.402       .  A
C511        F518   1.358       .  S
C512        C513   1.408       .  A
C512        F517   1.358       .  S
C513        C514   1.409       .  A
C514        F515   1.358       .  S
C519        C520   1.408       .  A
C519        C524   1.395       .  A
C519        F526   1.358       .  S
C520        C521   1.406       .  A
C521        C522   1.397       .  A
C521        F528   1.358       .  S
C522        C523   1.408       .  A
C522        F527   1.358       .  S
C523        C524   1.406       .  A
C524        F525   1.358       .  S
C529        C530   1.408       .  A
C529        C534   1.401       .  A
C529        F536   1.358       .  S
C530        C531   1.411       .  A
C531        C532   1.395       .  A
C531        F538   1.358       .  S
C532        C533   1.401       .  A
C532        F537   1.358       .  S
C533        C534   1.405       .  A
C534        F535   1.358       .  S
C539        C540   1.408       .  A
C539        C544   1.400       .  A
C539        F546   1.358       .  S
C540        C541   1.410       .  A
C541        C542   1.395       .  A
C541        F548   1.358       .  S
C542        C543   1.401       .  A
C542        F547   1.358       .  S
C543        C544   1.404       .  A
C544        F545   1.358       .  S
C549        C550   1.412   1_645  A
C549        C554   1.397   1_546  A
C549        F556   1.358   1_655  S
C550        C551   1.406       .  A
C551        C552   1.396   1_455  A
C551        F558   1.358       .  S
C552        C553   1.412       .  A
C552        F557   1.358       .  S
C553        C554   1.408   1_556  A
C554        F555   1.358       .  S
C559        C560   1.410       .  A
C559        C564   1.395       .  A
C559        F566   1.358   1_655  S
C560        C561   1.408       .  A
C561        C562   1.400       .  A
C561        F568   1.358       .  S
C562        C563   1.404       .  A
C562        F567   1.358       .  S
C563        C564   1.402       .  A
C564        F565   1.358       .  S
C569        C570   1.403       .  A
C569        C574   1.398       .  A
C569        F576   1.358       .  S
C570        C571   1.412       .  A
C571        C572   1.396   1_655  A
C571        F578   1.358   1_655  S
C572        C573   1.403       .  A
C572        F577   1.358       .  S
C573        C574   1.413   1_455  A
C574        F575   1.358       .  S
C579        C580   1.407       .  A
C579        C584   1.402       .  A
C579        F586   1.358       .  S
C580        C581   1.409       .  A
C581        C582   1.394       .  A
C581        F588   1.358       .  S
C582        C583   1.403       .  A
C582        F587   1.359       .  S
C583        C584   1.406       .  A
C584        F585   1.358       .  S
C589        C590   1.406       .  A
C589        C594   1.400       .  A
C589        F596   1.358       .  S
C590        C591   1.401       .  A
C591        C592   1.392   1_455  A
C591        F598   1.358       .  S
C592        C593   1.409       .  A
C592        F597   1.358       .  S
C593        C594   1.407   1_655  A
C594        F595   1.358       .  S
C599        C600   1.408       .  A
C599        C604   1.402       .  A
C599        F606   1.358       .  S
C600        C601   1.408       .  A
C601        C602   1.393       .  A
C601        F608   1.358       .  S
C602        C603   1.401       .  A
C602        F607   1.358       .  S
C603        C604   1.406       .  A
C604        F605   1.358       .  S
C609        C610   1.406       .  A
C609        C614   1.396       .  A
C609        F616   1.358       .  S
C610        C611   1.407       .  A
C611        C612   1.396       .  A
C611        F618   1.358   1_565  S
C612        C613   1.405       .  A
C612        F617   1.358       .  S
C613        C614   1.407       .  A
C614        F615   1.358       .  S
C619        C620   1.409       .  A
C619        C624   1.396       .  A
C619        F626   1.358       .  S
C620        C621   1.408       .  A
C621        C622   1.398       .  A
C621        F628   1.358       .  S
C622        C623   1.408       .  A
C622        F627   1.358       .  S
C623        C624   1.407       .  A
C624        F625   1.358       .  S
C629        C630   1.409       .  A
C629        C634   1.396       .  A
C629        F636   1.358       .  S
C630        C631   1.407       .  A
C631        C632   1.400       .  A
C631        F638   1.358       .  S
C632        C633   1.404       .  A
C632        F637   1.358       .  S
C633        C634   1.403       .  A
C634        F635   1.359       .  S
C639        C640   1.406       .  A
C639        C644   1.396       .  A
C639        F646   1.358       .  S
C640        C641   1.413       .  A
C641        C642   1.397       .  A
C641        F648   1.358       .  S
C642        C643   1.407       .  A
C642        F647   1.358       .  S
C643        C644   1.412       .  A
C644        F645   1.358       .  S
C649        C650   1.409       .  A
C649        C654   1.403       .  A
C649        F656   1.357       .  S
C650        C651   1.411       .  A
C651        C652   1.396       .  A
C651        F658   1.358       .  S
C652        C653   1.402       .  A
C652        F657   1.359       .  S
C653        C654   1.405       .  A
C654        F655   1.358       .  S
C659        C660   1.408       .  A
C659        C664   1.398       .  A
C659        F666   1.358       .  S
C660        C661   1.411       .  A
C661        C662   1.396       .  A
C661        F668   1.358       .  S
C662        C663   1.407       .  A
C662        F667   1.358       .  S
C663        C664   1.411       .  A
C664        F665   1.358       .  S
C669        C670   1.403       .  A
C669        C674   1.394       .  A
C669        F676   1.358       .  S
C670        C671   1.406       .  A
C671        C672   1.402       .  A
C671        F678   1.358       .  S
C672        C673   1.408       .  A
C672        F677   1.358       .  S
C673        C674   1.409       .  A
C674        F675   1.358       .  S
C679        C680   1.409       .  A
C679        C684   1.399       .  A
C679        F686   1.358       .  S
C680        C681   1.413       .  A
C681        C682   1.396       .  A
C681        F688   1.358       .  S
C682        C683   1.399       .  A
C682        F687   1.358       .  S
C683        C684   1.404       .  A
C684        F685   1.358       .  S
C689        C690   1.409       .  A
C689        C694   1.403       .  A
C689        F696   1.358       .  S
C690        C691   1.407       .  A
C691        C692   1.403       .  A
C691        F698   1.357       .  S
C692        C693   1.405       .  A
C692        F697   1.358       .  S
C693        C694   1.404       .  A
C694        F695   1.358       .  S
C699        C700   1.412       .  A
C699        C704   1.403   1_565  A
C699        F706   1.358       .  S
C700        C701   1.410       .  A
C701        C702   1.402       .  A
C701        F708   1.358       .  S
C702        C703   1.403   1_565  A
C702        F707   1.358       .  S
C703        C704   1.402       .  A
C704        F705   1.358       .  S
C709        C710   1.407   1_455  A
C709        C714   1.401       .  A
C709        F716   1.358       .  S
C710        C711   1.410       .  A
C711        C712   1.396   1_655  A
C711        F718   1.358       .  S
C712        C713   1.402       .  A
C712        F717   1.358       .  S
C713        C714   1.406       .  A
C714        F715   1.357       .  S
C719        C720   1.408       .  A
C719        C724   1.403       .  A
C719        F726   1.358       .  S
C720        C721   1.410       .  A
C721        C722   1.399       .  A
C721        F728   1.358       .  S
C722        C723   1.405       .  A
C722        F727   1.358       .  S
C723        C724   1.406       .  A
C724        F725   1.358       .  S
C729        C730   1.406       .  A
C729        C734   1.393       .  A
C729        F736   1.358       .  S
C730        C731   1.406       .  A
C731        C732   1.402       .  A
C731        F738   1.358       .  S
C732        C733   1.407       .  A
C732        F737   1.358       .  S
C733        C734   1.405       .  A
C734        F735   1.359       .  S
C739        C740   1.410       .  A
C739        C744   1.406       .  A
C739        F746   1.358       .  S
C740        C741   1.410       .  A
C741        C742   1.400       .  A
C741        F748   1.358       .  S
C742        C743   1.405       .  A
C742        F747   1.358       .  S
C743        C744   1.408       .  A
C744        F745   1.358       .  S
C749        C750   1.405       .  A
C749        C754   1.401       .  A
C749        F756   1.358       .  S
C750        C751   1.400       .  A
C751        C752   1.393       .  A
C751        F758   1.359       .  S
C752        C753   1.411       .  A
C752        F757   1.358   1_655  S
C753        C754   1.408       .  A
C754        F755   1.358       .  S
C759        C760   1.401       .  A
C759        C764   1.397       .  A
C759        F766   1.358       .  S
C760        C761   1.405       .  A
C761        C762   1.402       .  A
C761        F768   1.358       .  S
C762        C763   1.409       .  A
C762        F767   1.358       .  S
C763        C764   1.412       .  A
C764        F765   1.358       .  S
C769        C770   1.405       .  A
C769        C774   1.402       .  A
C769        F776   1.358       .  S
C770        C771   1.406   1_556  A
C771        C772   1.400   1_554  A
C771        F778   1.358       .  S
C772        C773   1.404       .  A
C772        F777   1.358   1_556  S
C773        C774   1.408       .  A
C774        F775   1.358       .  S
C779        C780   1.409   1_565  A
C779        C784   1.405       .  A
C779        F786   1.358   1_565  S
C780        C781   1.409   1_545  A
C781        C782   1.397       .  A
C781        F788   1.358       .  S
C782        C783   1.405       .  A
C782        F787   1.358       .  S
C783        C784   1.407       .  A
C784        F785   1.358       .  S
C789        C790   1.406       .  A
C789        C794   1.395       .  A
C789        F796   1.358       .  S
C790        C791   1.410       .  A
C791        C792   1.394       .  A
C791        F798   1.358       .  S
C792        C793   1.406       .  A
C792        F797   1.358       .  S
C793        C794   1.410       .  A
C794        F795   1.358       .  S
C799        C800   1.409       .  A
C799        C804   1.400       .  A
C799        F806   1.358       .  S
C800        C801   1.410       .  A
C801        C802   1.394       .  A
C801        F808   1.358       .  S
C802        C803   1.401       .  A
C802        F807   1.358       .  S
C803        C804   1.404       .  A
C804        F805   1.358       .  S
C809        C810   1.405       .  A
C809        C814   1.402       .  A
C809        F816   1.357       .  S
C810        C811   1.408       .  A
C811        C812   1.401       .  A
C811        F818   1.358       .  S
C812        C813   1.409       .  A
C812        F817   1.358       .  S
C813        C814   1.409       .  A
C814        F815   1.357       .  S
C819        C820   1.406       .  A
C819        C824   1.396       .  A
C819        F826   1.358       .  S
C820        C821   1.412       .  A
C821        C822   1.398       .  A
C821        F828   1.358       .  S
C822        C823   1.407       .  A
C822        F827   1.358       .  S
C823        C824   1.410       .  A
C824        F825   1.358       .  S
C829        C830   1.405       .  A
C829        C834   1.399       .  A
C829        F836   1.358       .  S
C830        C831   1.400       .  A
C831        C832   1.393       .  A
C831        F838   1.358       .  S
C832        C833   1.411       .  A
C832        F837   1.358       .  S
C833        C834   1.407       .  A
C834        F835   1.358       .  S
C839        C840   1.411       .  A
C839        C844   1.405       .  A
C839        F846   1.357       .  S
C840        C841   1.411       .  A
C841        C842   1.397       .  A
C841        F848   1.358   1_556  S
C842        C843   1.403       .  A
C842        F847   1.358       .  S
C843        C844   1.405       .  A
C844        F845   1.358       .  S
C849        C850   1.402       .  A
C849        C854   1.393       .  A
C849        F856   1.359       .  S
C850        C851   1.405       .  A
C851        C852   1.400       .  A
C851        F858   1.358       .  S
C852        C853   1.407       .  A
C852        F857   1.358       .  S
C853        C854   1.409       .  A
C854        F855   1.358       .  S
C859        C860   1.410       .  A
C859        C864   1.396       .  A
C859        F866   1.358       .  S
C860        C861   1.409       .  A
C861        C862   1.404       .  A
C861        F868   1.358       .  S
C862        C863   1.407       .  A
C862        F867   1.358       .  S
C863        C864   1.402       .  A
C864        F865   1.358       .  S
C869        C870   1.408       .  A
C869        C874   1.398       .  A
C869        F876   1.358       .  S
C870        C871   1.409       .  A
C871        C872   1.405       .  A
C871        F878   1.358       .  S
C872        C873   1.406   1_556  A
C872        F877   1.358   1_556  S
C873        C874   1.407   1_554  A
C874        F875   1.358       .  S
C879        C880   1.406   1_554  A
C879        C884   1.395   1_554  A
C879        F886   1.358       .  S
C880        C881   1.411   1_565  A
C881        C882   1.395   1_545  A
C881        F888   1.358       .  S
C882        C883   1.407       .  A
C882        F887   1.358   1_565  S
C883        C884   1.412       .  A
C884        F885   1.358       .  S
C889        C890   1.409       .  A
C889        C894   1.409       .  A
C889        F896   1.357       .  S
C890        C891   1.409       .  A
C891        C892   1.399       .  A
C891        F898   1.358       .  S
C892        C893   1.407   1_565  A
C892        F897   1.358       .  S
C893        C894   1.410   1_545  A
C894        F895   1.358       .  S
C899        C900   1.405       .  A
C899        C904   1.401       .  A
C899        F906   1.358       .  S
C900        C901   1.402       .  A
C901        C902   1.395       .  A
C901        F908   1.358       .  S
C902        C903   1.411       .  A
C902        F907   1.358       .  S
C903        C904   1.408       .  A
C904        F905   1.358       .  S
C909        C910   1.410   1_554  A
C909        C914   1.402   1_554  A
C909        F916   1.358       .  S
C910        C911   1.406       .  A
C911        C912   1.404       .  A
C911        F918   1.357       .  S
C912        C913   1.406       .  A
C912        F917   1.358       .  S
C913        C914   1.403       .  A
C914        F915   1.358   1_556  S
C919        C920   1.411       .  A
C919        C924   1.394   1_556  A
C919        F926   1.358       .  S
C920        C921   1.407       .  A
C921        C922   1.396       .  A
C921        F928   1.358       .  S
C922        C923   1.411       .  A
C922        F927   1.358       .  S
C923        C924   1.406   1_556  A
C924        F925   1.358       .  S
C929        C930   1.400       .  A
C929        C934   1.395       .  A
C929        F936   1.358       .  S
C930        C931   1.406       .  A
C931        C932   1.402       .  A
C931        F938   1.358       .  S
C932        C933   1.408       .  A
C932        F937   1.357       .  S
C933        C934   1.413       .  A
C934        F935   1.358       .  S
C939        C940   1.409       .  A
C939        C944   1.407       .  A
C939        F946   1.358       .  S
C940        C941   1.409       .  A
C941        C942   1.399       .  A
C941        F948   1.358       .  S
C942        C943   1.407       .  A
C942        F947   1.358       .  S
C943        C944   1.409       .  A
C944        F945   1.358       .  S
C949        C950   1.405       .  A
C949        C954   1.402       .  A
C949        F956   1.358       .  S
C950        C951   1.402       .  A
C951        C952   1.397       .  A
C951        F958   1.358       .  S
C952        C953   1.411       .  A
C952        F957   1.358       .  S
C953        C954   1.409       .  A
C954        F955   1.358       .  S
C959        C960   1.403       .  A
C959        C964   1.394       .  A
C959        F966   1.359       .  S
C960        C961   1.406       .  A
C961        C962   1.401       .  A
C961        F968   1.358       .  S
C962        C963   1.407       .  A
C962        F967   1.357       .  S
C963        C964   1.408       .  A
C964        F965   1.358       .  S
C969        C970   1.407       .  A
C969        C974   1.403       .  A
C969        F976   1.358       .  S
C970        C971   1.405       .  A
C971        C972   1.402       .  A
C971        F978   1.358       .  S
C972        C973   1.407       .  A
C972        F977   1.358       .  S
C973        C974   1.405       .  A
C974        F975   1.358       .  S
C979        C980   1.408       .  A
C979        C984   1.395   1_655  A
C979        F986   1.358       .  S
C980        C981   1.406       .  A
C981        C982   1.396   1_655  A
C981        F988   1.358       .  S
C982        C983   1.409       .  A
C982        F987   1.358       .  S
C983        C984   1.406       .  A
C984        F985   1.358       .  S
C989        C990   1.407       .  A
C989        C994   1.401       .  A
C989        F996   1.358       .  S
C990        C991   1.408       .  A
C991        C992   1.400       .  A
C991        F998   1.358       .  S
C992        C993   1.403       .  A
C992        F997   1.358       .  S
C993        C994   1.405       .  A
C994        F995   1.358       .  S
C999       C1000   1.407       .  A
C999       C1004   1.398       .  A
C999       F1006   1.358       .  S
C1000      C1001   1.409       .  A
C1001      C1002   1.396       .  A
C1001      F1008   1.358       .  S
C1002      C1003   1.407       .  A
C1002      F1007   1.358       .  S
C1003      C1004   1.411       .  A
C1004      F1005   1.358       .  S
C1009      C1010   1.405       .  A
C1009      C1014   1.401       .  A
C1009      F1016   1.358       .  S
C1010      C1011   1.401       .  A
C1011      C1012   1.396   1_455  A
C1011      F1018   1.358       .  S
C1012      C1013   1.411       .  A
C1012      F1017   1.358       .  S
C1013      C1014   1.409   1_655  A
C1014      F1015   1.358       .  S
C1019      C1020   1.410       .  A
C1019      C1024   1.406       .  A
C1019      F1026   1.358   1_565  S
C1020      C1021   1.409       .  A
C1021      C1022   1.397       .  A
C1021      F1028   1.358       .  S
C1022      C1023   1.405       .  A
C1022      F1027   1.358       .  S
C1023      C1024   1.407       .  A
C1024      F1025   1.358       .  S
C1029      C1030   1.414       .  A
C1029      C1034   1.398       .  A
C1029      F1036   1.358       .  S
C1030      C1031   1.408       .  A
C1031      C1032   1.400       .  A
C1031      F1038   1.358       .  S
C1032      C1033   1.414       .  A
C1032      F1037   1.358       .  S
C1033      C1034   1.406       .  A
C1034      F1035   1.358       .  S
C1039      C1040   1.407       .  A
C1039      C1044   1.400       .  A
C1039      F1046   1.358       .  S
C1040      C1041   1.410       .  A
C1041      C1042   1.393       .  A
C1041      F1048   1.358       .  S
C1042      C1043   1.401       .  A
C1042      F1047   1.358       .  S
C1043      C1044   1.406       .  A
C1044      F1045   1.358       .  S
C1049      C1050   1.409       .  A
C1049      C1054   1.403       .  A
C1049      F1056   1.357       .  S
C1050      C1051   1.412       .  A
C1051      C1052   1.405       .  A
C1051      F1058   1.358       .  S
C1052      C1053   1.403       .  A
C1052      F1057   1.358       .  S
C1053      C1054   1.405       .  A
C1054      F1055   1.358       .  S
C1059      C1060   1.408       .  A
C1059      C1064   1.400   1_465  A
C1059      F1066   1.358       .  S
C1060      C1061   1.409       .  A
C1061      C1062   1.397   1_455  A
C1061      F1068   1.358       .  S
C1062      C1063   1.407       .  A
C1062      F1067   1.358       .  S
C1063      C1064   1.410   1_565  A
C1064      F1065   1.358       .  S
C1069      C1070   1.404       .  A
C1069      C1074   1.398       .  A
C1069      F1076   1.358       .  S
C1070      C1071   1.402       .  A
C1071      C1072   1.394       .  A
C1071      F1078   1.358       .  S
C1072      C1073   1.409       .  A
C1072      F1077   1.358       .  S
C1073      C1074   1.407       .  A
C1074      F1075   1.358       .  S
C1079      C1080   1.402       .  A
C1079      C1084   1.400       .  A
C1079      F1086   1.358       .  S
C1080      C1081   1.405       .  A
C1081      C1082   1.402       .  A
C1081      F1088   1.358       .  S
C1082      C1083   1.410       .  A
C1082      F1087   1.358       .  S
C1083      C1084   1.413       .  A
C1084      F1085   1.358   1_655  S
