geometry optimzed in LAMMPS
_audit_creation_date              2020-12-01 
_audit_creation_method            'lammps2cif' 
_symmetry_space_group_name_H-M    'P1' 
_symmetry_Int_Tables_number       1 
_symmetry_cell_setting            triclinic 
loop_ 
_symmetry_equiv_pos_as_xyz 
  x,y,z 
_cell_length_a                    52.12244176 
_cell_length_b                    52.216435218793045 
_cell_length_c                    52.179030725597876 
_cell_angle_alpha                 90.03669899373388 
_cell_angle_beta                  90.0836323169582 
_cell_angle_gamma                 89.86516071074072 
loop_ 
_atom_site_label 
_atom_site_type_symbol 
_atom_site_fract_x 
_atom_site_fract_y 
_atom_site_fract_z 
_atom_site_charge 
In1        In  0.25437496  0.88390909  0.26127757     1.36900
C2          C  0.25526739  0.85117970  0.22236784     0.77600
O3          O  0.29628366  0.88291866  0.25252637    -0.60800
O4          O  0.28370748  0.86948481  0.28901632    -0.51700
C5          C  0.25065810  0.93431019  0.26690536     0.70300
O6          O  0.24681935  0.92328269  0.24567544    -0.46600
C7          C  0.20973711  0.86812021  0.28016652     0.75000
O8          O  0.25229211  0.87502492  0.21874152    -0.58400
O9          O  0.23063164  0.86555901  0.29223039    -0.48500
O10         O  0.25739933  0.84469819  0.24552214    -0.54900
C11         C  0.30192910  0.87147496  0.27312494     0.85200
O12         O  0.25761344  0.91964578  0.28480861    -0.56700
O13         O  0.21174993  0.87992042  0.25922374    -0.60000
In14       In  0.22127006  0.09179748  0.28765236     1.36900
C15         C  0.18099957  0.12278758  0.28762483     0.77600
O16         O  0.20926938  0.09068443  0.32866558    -0.60800
O17         O  0.24655131  0.10491316  0.31975706    -0.51700
C18         C  0.22939591  0.04173177  0.28347842     0.70300
O19         O  0.20753034  0.05177084  0.28024198    -0.46600
C20         C  0.24074844  0.11152633  0.24481520     0.75000
O21         O  0.17880884  0.09927274  0.28189195    -0.58400
O22         O  0.25154849  0.11406325  0.26639085    -0.48500
O23         O  0.20347029  0.12984786  0.29297977    -0.54900
C24         C  0.22930243  0.10177284  0.33654439     0.85200
O25         O  0.24682939  0.05728424  0.28964614    -0.56700
O26         O  0.22123255  0.09734396  0.24509962    -0.60000
In27       In  0.24587294  0.75596551  0.92880198     1.36900
C28         C  0.24710765  0.79565945  0.89732522     0.77600
O29         O  0.28795799  0.76391477  0.92947726    -0.60800
O30         O  0.27521277  0.72821980  0.91428358    -0.51700
C31         C  0.24153678  0.74869600  0.97879597     0.70300
O32         O  0.23956231  0.77062629  0.96871806    -0.46600
C33         C  0.20138490  0.73881054  0.91124405     0.75000
O34         O  0.24379682  0.79859433  0.92121934    -0.58400
O35         O  0.22215044  0.72659699  0.90837728    -0.48500
O36         O  0.24932910  0.77274174  0.89010330    -0.54900
C37         C  0.29371079  0.74349197  0.91780723     0.85200
O38         O  0.24661792  0.73081913  0.96335032    -0.56700
O39         O  0.20330911  0.75873511  0.92474475    -0.60000
In40       In  0.21580606  0.72479322  0.13603699     1.36900
C41         C  0.17502741  0.72543011  0.16646730     0.77600
O42         O  0.20579526  0.68311943  0.13619706    -0.60800
O43         O  0.24310327  0.69407788  0.14871252    -0.51700
C44         C  0.22189674  0.72949529  0.08582607     0.70300
O45         O  0.20097643  0.73464545  0.09688059    -0.46600
C46         C  0.23725936  0.76750939  0.15417060     0.75000
O47         O  0.17294825  0.72890267  0.14253823    -0.58400
O48         O  0.24675841  0.74553818  0.15780639    -0.48500
O49         O  0.19760786  0.72180219  0.17428811    -0.54900
C50         C  0.22676802  0.67634413  0.14634532     0.85200
O51         O  0.23915876  0.72076039  0.10034509    -0.56700
O52         O  0.21774952  0.76762035  0.13993578    -0.60000
In53       In  0.88089460  0.76354364  0.76617826     1.36900
C54         C  0.84822173  0.80216758  0.76299160     0.77600
O55         O  0.88051822  0.77215411  0.72426904    -0.60800
O56         O  0.86830853  0.73521787  0.73663882    -0.51700
C57         C  0.93107200  0.75811225  0.77272476     0.70300
O58         O  0.91952218  0.77884302  0.77763721    -0.46600
C59         C  0.86236325  0.74452349  0.80951062     0.75000
O60         O  0.87219177  0.80613737  0.76443972    -0.58400
O61         O  0.86036301  0.73298474  0.78829917    -0.48500
O62         O  0.84172759  0.77899870  0.76411989    -0.54900
C63         C  0.86995440  0.75117319  0.71846059     0.85200
O64         O  0.91707210  0.74074693  0.76345735    -0.56700
O65         O  0.87521715  0.76491030  0.80860099    -0.60000
In66       In  0.08803486  0.73150893  0.80067580     1.36900
C67         C  0.11759872  0.72824701  0.84191501     0.77600
O68         O  0.08477320  0.68959276  0.80853362    -0.60800
O69         O  0.09820252  0.70167105  0.77189129    -0.51700
C70         C  0.03843219  0.73922848  0.79267984     0.70300
O71         O  0.04832331  0.74071064  0.81476730    -0.46600
C72         C  0.11123427  0.77324663  0.78318648     0.75000
O73         O  0.09427257  0.73493395  0.84352343    -0.58400
O74         O  0.11451851  0.75144509  0.77324311    -0.48500
O75         O  0.12511104  0.72298702  0.81961330    -0.54900
C76         C  0.09467338  0.68335141  0.78732518     0.85200
O77         O  0.05393399  0.73357576  0.77503023    -0.56700
O78         O  0.09453129  0.77381826  0.80059615    -0.60000
In79       In  0.24462734  0.09593716  0.81316844     1.36900
C80         C  0.25087025  0.11817246  0.85881144     0.77600
O81         O  0.28485100  0.10598941  0.80150557    -0.60800
O82         O  0.25422758  0.13087448  0.79093443    -0.51700
C83         C  0.24701148  0.04544551  0.80511824     0.70300
O84         O  0.24139292  0.05514099  0.82647231    -0.46600
C85         C  0.19772715  0.10794482  0.79669774     0.75000
O86         O  0.26958740  0.10963091  0.84617329    -0.58400
O87         O  0.21742793  0.11086423  0.78294140    -0.48500
O88         O  0.22931848  0.11235377  0.84972469    -0.54900
C89         C  0.27814472  0.12703739  0.79149606     0.85200
O90         O  0.25350399  0.06150600  0.78839581    -0.56700
O91         O  0.20211935  0.09762333  0.81807392    -0.60000
In92       In  0.22083296  0.88955117  0.77344974     1.36900
C93         C  0.18182931  0.85704763  0.77234601     0.77600
O94         O  0.21242662  0.89103703  0.73141932    -0.60800
O95         O  0.24861147  0.87630187  0.74362495    -0.51700
C96         C  0.22834657  0.93927242  0.78047675     0.70300
O97         O  0.20622701  0.92934663  0.78100058    -0.46600
C98         C  0.23779786  0.86964292  0.81688850     0.75000
O99         O  0.17826084  0.88077408  0.77635921    -0.58400
O100        O  0.25012367  0.86781326  0.79610605    -0.48500
O101        O  0.20486428  0.85072096  0.76873092    -0.54900
C102        C  0.23294853  0.87958160  0.72535673     0.85200
O103        O  0.24626082  0.92394200  0.77504776    -0.56700
O104        O  0.21817719  0.88373551  0.81574885    -0.60000
In105      In  0.08845204  0.24868744  0.25925361     1.36900
C106        C  0.11739641  0.25141926  0.21791966     0.77600
O107        O  0.08647424  0.29061982  0.25093667    -0.60800
O108        O  0.10192126  0.27857981  0.28684486    -0.51700
C109        C  0.03876560  0.24240407  0.26704269     0.70300
O110        O  0.04892902  0.23980981  0.24524893    -0.46600
C111        C  0.10959383  0.20561159  0.27645985     0.75000
O112        O  0.09364481  0.24661215  0.21624207    -0.58400
O113        O  0.11159638  0.22667077  0.28820427    -0.48500
O114        O  0.12572816  0.25453510  0.24035997    -0.54900
C115        C  0.09787719  0.29681577  0.27138785     0.85200
O116        O  0.05399086  0.24895280  0.28464726    -0.56700
O117        O  0.09515951  0.20640338  0.25710462    -0.60000
In118      In  0.88073305  0.22098589  0.28833253     1.36900
C119        C  0.84859982  0.18204027  0.28784087     0.77600
O120        O  0.88078563  0.20924371  0.32940422    -0.60800
O121        O  0.86715612  0.24665434  0.31998924    -0.51700
C122        C  0.93103835  0.22610275  0.28502648     0.70300
O123        O  0.91976911  0.20538482  0.27965860    -0.46600
C124        C  0.86313093  0.24153815  0.24509879     0.75000
O125        O  0.87244093  0.17869056  0.28438135    -0.58400
O126        O  0.86100267  0.25267287  0.26652488    -0.48500
O127        O  0.84173937  0.20498929  0.29087901    -0.54900
C128        C  0.86980514  0.22947240  0.33692487     0.85200
O129        O  0.91655098  0.24386368  0.29275986    -0.56700
O130        O  0.87618244  0.22121320  0.24575290    -0.60000
In131      In  0.75327743  0.88809375  0.29166907     1.36900
C132        C  0.79489623  0.85891635  0.29311911     0.77600
O133        O  0.76237972  0.88803568  0.33349501    -0.60800
O134        O  0.72637433  0.87280559  0.32130139    -0.51700
C135        C  0.74462404  0.93795678  0.28722183     0.70300
O136        O  0.76624810  0.92805550  0.28256287    -0.46600
C137        C  0.73481273  0.87050019  0.24743843     0.75000
O138        O  0.79622779  0.88275589  0.28882187    -0.58400
O139        O  0.72314683  0.86760982  0.26844402    -0.48500
O140        O  0.77254866  0.85039468  0.29638324    -0.54900
C141        C  0.74226806  0.87592014  0.33941382     0.85200
O142        O  0.72800988  0.92257760  0.29550206    -0.56700
O143        O  0.75518941  0.88325454  0.24916681    -0.60000
In144      In  0.72013224  0.09491683  0.26102179     1.36900
C145        C  0.71903326  0.12641968  0.22107649     0.77600
O146        O  0.67814358  0.09616810  0.25304562    -0.60800
O147        O  0.69138784  0.10752809  0.29001064    -0.51700
C148        C  0.72349371  0.04456620  0.26705866     0.70300
O149        O  0.72576635  0.05525564  0.24545676    -0.46600
C150        C  0.76410719  0.11316307  0.27888949     0.75000
O151        O  0.72297542  0.10261210  0.21833567    -0.58400
O152        O  0.74289633  0.11725285  0.28981157    -0.48500
O153        O  0.71587338  0.13355634  0.24390710    -0.54900
C154        C  0.67281782  0.10623164  0.27441645     0.85200
O155        O  0.71857583  0.05966734  0.28527901    -0.56700
O156        O  0.76293559  0.09778228  0.26031661    -0.60000
In157      In  0.22267822  0.25562650  0.92670350     1.36900
C158        C  0.18559967  0.25386545  0.89197820     0.77600
O159        O  0.21202710  0.29678127  0.92667999    -0.60800
O160        O  0.24833476  0.28600903  0.91091876    -0.51700
C161        C  0.22852590  0.25401983  0.97690392     0.70300
O162        O  0.20692881  0.25099697  0.96619107    -0.46600
C163        C  0.24059286  0.20932592  0.91566119     0.75000
O164        O  0.18080435  0.25325030  0.91582191    -0.58400
O165        O  0.25378491  0.22932841  0.91179945    -0.48500
O166        O  0.20913746  0.25519700  0.88646900    -0.54900
C167        C  0.23170573  0.30347143  0.91428768     0.85200
O168        O  0.24674483  0.25930317  0.96190746    -0.56700
O169        O  0.21912702  0.21336535  0.92604900    -0.60000
In170      In  0.24762378  0.22483710  0.13426156     1.36900
C171        C  0.25123456  0.18379061  0.16386859     0.77600
O172        O  0.29005952  0.21974067  0.13692634    -0.60800
O173        O  0.27351822  0.25369634  0.15250538    -0.51700
C174        C  0.24510869  0.23301233  0.08413293     0.70300
O175        O  0.24244550  0.21103478  0.09385326    -0.46600
C176        C  0.20162363  0.23984280  0.15029153     0.75000
O177        O  0.25003655  0.18171067  0.13968017    -0.58400
O178        O  0.22148940  0.25337660  0.15305544    -0.48500
O179        O  0.24973267  0.20637124  0.17220901    -0.54900
C180        C  0.29323479  0.23970830  0.15023531     0.85200
O181        O  0.25034616  0.25048770  0.09994313    -0.56700
O182        O  0.20518916  0.21943543  0.13789744    -0.60000
In183      In  0.88060848  0.25132534  0.80239624     1.36900
C184        C  0.84730887  0.25196132  0.84061711     0.77600
O185        O  0.88241634  0.29275560  0.81273631    -0.60800
O186        O  0.86864968  0.28247593  0.77557640    -0.51700
C187        C  0.93076317  0.24566189  0.79696650     0.70300
O188        O  0.91995700  0.24429818  0.81861351    -0.46600
C189        C  0.86230077  0.20832102  0.78219058     0.75000
O190        O  0.87062331  0.24593451  0.84423552    -0.58400
O191        O  0.85997798  0.22979964  0.77124171    -0.48500
O192        O  0.84164234  0.25752109  0.81782532    -0.54900
C193        C  0.87177526  0.29990744  0.79216207     0.85200
O194        O  0.91594147  0.25109625  0.77862231    -0.56700
O195        O  0.87540338  0.20880423  0.80249107    -0.60000
In196      In  0.08747782  0.21351312  0.77218939     1.36900
C197        C  0.10915830  0.16759737  0.77655983     0.77600
O198        O  0.09465781  0.20596734  0.73055301    -0.60800
O199        O  0.10539492  0.24225651  0.74565534    -0.51700
C200        C  0.03708761  0.22181983  0.77704123     0.70300
O201        O  0.04758485  0.20110818  0.78355066    -0.46600
C202        C  0.11401812  0.23620985  0.80957474     0.75000
O203        O  0.09901156  0.17498408  0.75593246    -0.58400
O204        O  0.12051190  0.23711711  0.78634121    -0.48500
O205        O  0.10528309  0.18214870  0.79534139    -0.54900
C206        C  0.10577747  0.22709462  0.72673096     0.85200
O207        O  0.05205548  0.23767365  0.76686646    -0.56700
O208        O  0.09279649  0.22534943  0.81337722    -0.60000
In209      In  0.75114315  0.25287724  0.13222326     1.36900
C210        C  0.79203350  0.25363318  0.16276463     0.77600
O211        O  0.76069094  0.29472908  0.13319090    -0.60800
O212        O  0.72432077  0.28291976  0.14734065    -0.51700
C213        C  0.74453420  0.24848434  0.08160806     0.70300
O214        O  0.76602994  0.24517454  0.09232504    -0.46600
C215        C  0.73156868  0.20959527  0.15106623     0.75000
O216        O  0.79404851  0.24916332  0.13896817    -0.58400
O217        O  0.72011376  0.23086836  0.15271438    -0.48500
O218        O  0.76940494  0.25709263  0.17045351    -0.54900
C219        C  0.74057895  0.30076780  0.14527993     0.85200
O220        O  0.72682000  0.25511773  0.09666448    -0.56700
O221        O  0.75198290  0.21033291  0.13821037    -0.60000
In222      In  0.71721862  0.21831314  0.92474637     1.36900
C223        C  0.71606582  0.17864677  0.89316914     0.77600
O224        O  0.67564838  0.20768528  0.92530161    -0.60800
O225        O  0.68617276  0.24494800  0.91231123    -0.51700
C226        C  0.72429097  0.22620282  0.97467194     0.70300
O227        O  0.72864779  0.20478145  0.96420798    -0.46600
C228        C  0.76022325  0.23734442  0.90538230     0.75000
O229        O  0.71930444  0.17567269  0.91710447    -0.58400
O230        O  0.73896403  0.24888510  0.90327333    -0.48500
O231        O  0.71363357  0.20157216  0.88602188    -0.54900
C232        C  0.66869184  0.22830615  0.91464874     0.85200
O233        O  0.71513172  0.24291834  0.95980237    -0.56700
O234        O  0.75933483  0.21710815  0.91845307    -0.60000
In235      In  0.72197114  0.88528474  0.80107173     1.36900
C236        C  0.72540573  0.85329783  0.84013343     0.77600
O237        O  0.68101507  0.88440561  0.81408460    -0.60800
O238        O  0.68949348  0.87395142  0.77553328    -0.51700
C239        C  0.72728463  0.93525386  0.79523067     0.70300
O240        O  0.73377060  0.92394795  0.81566158    -0.46600
C241        C  0.76364306  0.86880562  0.77698995     0.75000
O242        O  0.72690676  0.87729513  0.84338080    -0.58400
O243        O  0.74127128  0.86355612  0.76924287    -0.48500
O244        O  0.72282401  0.84617362  0.81721574    -0.54900
C245        C  0.67285056  0.87542195  0.79311488     0.85200
O246        O  0.71659916  0.92116719  0.77874795    -0.56700
O247        O  0.76439595  0.88377890  0.79587862    -0.60000
In248      In  0.75516004  0.09155816  0.76765772     1.36900
C249        C  0.79387066  0.12438668  0.76711565     0.77600
O250        O  0.76631811  0.09112836  0.72646903    -0.60800
O251        O  0.72894088  0.10477111  0.73629319    -0.51700
C252        C  0.74861857  0.04140522  0.77255013     0.70300
O253        O  0.76944971  0.05232858  0.77844616    -0.46600
C254        C  0.73423662  0.10917654  0.81065287     0.75000
O255        O  0.79776736  0.10045766  0.76904689    -0.58400
O256        O  0.72355082  0.11158653  0.78900274    -0.48500
O257        O  0.77059635  0.13086949  0.76624948    -0.54900
C258        C  0.74594736  0.10209462  0.71917159     0.85200
O259        O  0.73184676  0.05607499  0.76310844    -0.56700
O260        O  0.75464265  0.09617601  0.81034232    -0.60000
In261      In  0.09098343  0.76508796  0.29414639     1.36900
C262        C  0.12259402  0.80471801  0.29524843     0.77600
O263        O  0.09208662  0.77336230  0.33625126    -0.60800
O264        O  0.10530159  0.73696430  0.32322768    -0.51700
C265        C  0.04056276  0.75858699  0.29057563     0.70300
O266        O  0.05104946  0.78002732  0.28662224    -0.46600
C267        C  0.10767713  0.74585114  0.24983752     0.75000
O268        O  0.09864888  0.80780605  0.29218764    -0.58400
O269        O  0.11055563  0.73445961  0.27100128    -0.48500
O270        O  0.12977721  0.78178312  0.29742726    -0.54900
C271        C  0.10305891  0.75245839  0.34175261     0.85200
O272        O  0.05577261  0.74107474  0.29737467    -0.56700
O273        O  0.09503928  0.76638556  0.25131517    -0.60000
In274      In  0.88324266  0.73224236  0.26549684     1.36900
C275        C  0.85032735  0.73158675  0.22694876     0.77600
O276        O  0.88188641  0.69053788  0.25599612    -0.60800
O277        O  0.87075131  0.70217755  0.29349874    -0.51700
C278        C  0.93348622  0.73752820  0.27137775     0.70300
O279        O  0.92262343  0.73993933  0.24982675    -0.46600
C280        C  0.86610816  0.77687154  0.28293904     0.75000
O281        O  0.87432861  0.73279897  0.22305661    -0.58400
O282        O  0.86346928  0.75628389  0.29543461    -0.48500
O283        O  0.84378225  0.73102871  0.25019457    -0.54900
C284        C  0.87218699  0.68422125  0.27723422     0.85200
O285        O  0.91878096  0.73107805  0.28941530    -0.56700
O286        O  0.87917189  0.77463336  0.26275202    -0.60000
In287      In  0.72351178  0.76155563  0.13450854     1.36900
C288        C  0.72048707  0.80366362  0.16287025     0.77600
O289        O  0.68100477  0.76709165  0.13136463    -0.60800
O290        O  0.69495534  0.73223423  0.14721700    -0.51700
C291        C  0.73217204  0.75269574  0.08495049     0.70300
O292        O  0.72466242  0.77422760  0.09315305    -0.46600
C293        C  0.76564463  0.74495206  0.15805147     0.75000
O294        O  0.72867997  0.80439684  0.14002586    -0.58400
O295        O  0.74423881  0.73383297  0.16004882    -0.48500
O296        O  0.71378208  0.78182568  0.17043708    -0.54900
C297        C  0.67583151  0.74654222  0.14292948     0.85200
O298        O  0.73471230  0.73585766  0.10203591    -0.56700
O299        O  0.76558212  0.76396302  0.14312054    -0.60000
In300      In  0.75715920  0.72514096  0.92757692     1.36900
C301        C  0.79574823  0.72503059  0.89457181     0.77600
O302        O  0.76449653  0.68292151  0.92812395    -0.60800
O303        O  0.72806712  0.69618811  0.91513833    -0.51700
C304        C  0.75041648  0.73164873  0.97760244     0.70300
O305        O  0.77210835  0.72592524  0.96829412    -0.46600
C306        C  0.74004208  0.76890079  0.90837238     0.75000
O307        O  0.79925213  0.73056441  0.91801368    -0.58400
O308        O  0.72788004  0.74807482  0.90616380    -0.48500
O309        O  0.77301473  0.71931548  0.88882379    -0.54900
C310        C  0.74333364  0.67748642  0.91765234     0.85200
O311        O  0.73247110  0.73290783  0.96144430    -0.56700
O312        O  0.76007737  0.76745858  0.92192322    -0.60000
In313      In  0.22603368  0.25905082  0.63184725     1.36900
C314        C  0.22417175  0.29741024  0.66463882     0.77600
O315        O  0.18406248  0.26597408  0.63688668    -0.60800
O316        O  0.19962120  0.23018072  0.64926778    -0.51700
C317        C  0.22494739  0.25483400  0.58133750     0.70300
O318        O  0.23024622  0.27565692  0.59243598    -0.46600
C319        C  0.27362627  0.24336984  0.64267395     0.75000
O320        O  0.22489715  0.30137504  0.64066843    -0.58400
O321        O  0.25439669  0.22893555  0.64571651    -0.48500
O322        O  0.22542550  0.27421148  0.67122190    -0.54900
C323        C  0.18050448  0.24523941  0.64883363     0.85200
O324        O  0.21880512  0.23671731  0.59603202    -0.56700
O325        O  0.26826075  0.26492392  0.63329676    -0.60000
In326      In  0.25144265  0.22293289  0.42592287     1.36900
C327        C  0.29452645  0.22226172  0.39956113     0.77600
O328        O  0.25993733  0.18081805  0.42691237    -0.60800
O329        O  0.22433192  0.19329979  0.41127929    -0.51700
C330        C  0.24283183  0.23110099  0.47526821     0.70300
O331        O  0.26511109  0.22990097  0.46595099    -0.46600
C332        C  0.23352661  0.26507733  0.40359777     0.75000
O333        O  0.29419116  0.22883888  0.42289922    -0.58400
O334        O  0.22226789  0.24378252  0.40181869    -0.48500
O335        O  0.27311845  0.21597238  0.39035068    -0.54900
C336        C  0.23990652  0.17500728  0.41458729     0.85200
O337        O  0.22505560  0.22642694  0.45956573    -0.56700
O338        O  0.25315023  0.26482999  0.41764475    -0.60000
In339      In  0.21676770  0.59655095  0.76012124     1.36900
C340        C  0.21746005  0.63040322  0.72236313     0.77600
O341        O  0.17514321  0.59823071  0.75025297    -0.60800
O342        O  0.18673442  0.60941432  0.78783152    -0.51700
C343        C  0.21904948  0.54599042  0.76398937     0.70300
O344        O  0.22337705  0.55750638  0.74313609    -0.46600
C345        C  0.26066966  0.61187143  0.78111704     0.75000
O346        O  0.21991190  0.60662528  0.71799794    -0.58400
O347        O  0.23922658  0.61490538  0.79196677    -0.48500
O348        O  0.21490438  0.63620091  0.74565339    -0.54900
C349        C  0.16883462  0.60802303  0.77147886     0.85200
O350        O  0.21290850  0.56036881  0.78240557    -0.56700
O351        O  0.25963994  0.59947930  0.76040307    -0.60000
In352      In  0.24961923  0.38987393  0.78993195     1.36900
C353        C  0.29350219  0.36435899  0.79074305     0.77600
O354        O  0.25966025  0.39129300  0.83153607    -0.60800
O355        O  0.22383169  0.37494402  0.82060543    -0.51700
C356        C  0.23941256  0.43904427  0.78242640     0.70300
O357        O  0.26033804  0.42876891  0.77596108    -0.46600
C358        C  0.23046324  0.36774856  0.74820870     0.75000
O359        O  0.29303933  0.38847935  0.78845504    -0.58400
O360        O  0.22103118  0.36426615  0.77020045    -0.48500
O361        O  0.27184458  0.35388786  0.79230164    -0.54900
C362        C  0.24002329  0.37888239  0.83827023     0.85200
O363        O  0.22413092  0.42434073  0.79396684    -0.56700
O364        O  0.24820136  0.38402305  0.74753028    -0.60000
In365      In  0.58882130  0.23168512  0.30176899     1.36900
C366        C  0.62272155  0.23132266  0.33914188     0.77600
O367        O  0.58985879  0.19040260  0.31305710    -0.60800
O368        O  0.60056794  0.20041436  0.27491648    -0.51700
C369        C  0.53860773  0.23741741  0.29717933     0.70300
O370        O  0.55029760  0.24201772  0.31791094    -0.46600
C371        C  0.60651291  0.27495186  0.28197744     0.75000
O372        O  0.59892397  0.23349044  0.34382111    -0.58400
O373        O  0.60854073  0.25369393  0.27050430    -0.48500
O374        O  0.62845805  0.22998543  0.31574041    -0.54900
C375        C  0.59946570  0.18323663  0.29201459     0.85200
O376        O  0.55248174  0.22868847  0.27939747    -0.56700
O377        O  0.59365400  0.27411862  0.30238559    -0.60000
In378      In  0.38056501  0.26325174  0.27590620     1.36900
C379        C  0.34864330  0.30252267  0.27381991     0.77600
O380        O  0.38053844  0.27209551  0.23405807    -0.60800
O381        O  0.36527914  0.23623712  0.24629834    -0.51700
C382        C  0.43087054  0.25694949  0.28011455     0.70300
O383        O  0.42025197  0.27846074  0.28359365    -0.46600
C384        C  0.36412222  0.24380434  0.31980182     0.75000
O385        O  0.37237817  0.30571461  0.27807565    -0.58400
O386        O  0.36238080  0.23192167  0.29877506    -0.48500
O387        O  0.34164121  0.27955461  0.27169249    -0.54900
C388        C  0.36817499  0.25212727  0.22822961     0.85200
O389        O  0.41577879  0.23928059  0.27358228    -0.56700
O390        O  0.37536773  0.26506993  0.31835029    -0.60000
In391      In  0.72126268  0.22630496  0.63497353     1.36900
C392        C  0.68082793  0.22192015  0.66532641     0.77600
O393        O  0.71412334  0.18420782  0.63366839    -0.60800
O394        O  0.74997427  0.19729970  0.64833225    -0.51700
C395        C  0.72664750  0.23115844  0.58488256     0.70300
O396        O  0.70603884  0.23692806  0.59620273    -0.46600
C397        C  0.73970652  0.27034460  0.65336914     0.75000
O398        O  0.67841463  0.22514612  0.64139394    -0.58400
O399        O  0.75113800  0.24915928  0.65605758    -0.48500
O400        O  0.70364788  0.22144804  0.67327319    -0.54900
C401        C  0.73487478  0.17862980  0.64492010     0.85200
O402        O  0.74410339  0.22237837  0.59913737    -0.56700
O403        O  0.71971324  0.26912251  0.63984540    -0.60000
In404      In  0.75063101  0.25779372  0.42830837     1.36900
C405        C  0.75172111  0.29920710  0.39935857     0.77600
O406        O  0.79300845  0.26430043  0.42744234    -0.60800
O407        O  0.77840946  0.22897033  0.41328734    -0.51700
C408        C  0.74565969  0.25005445  0.47802552     0.70300
O409        O  0.74543958  0.27216498  0.46826378    -0.46600
C410        C  0.70686378  0.24126219  0.40881037     0.75000
O411        O  0.74775872  0.30073871  0.42324647    -0.58400
O412        O  0.72786930  0.22962422  0.40572898    -0.48500
O413        O  0.75508283  0.27687992  0.39091785    -0.54900
C414        C  0.79750868  0.24367088  0.41558906     0.85200
O415        O  0.74979284  0.23208224  0.46242533    -0.56700
O416        O  0.70793895  0.26022804  0.42367945    -0.60000
In417      In  0.25678087  0.75687427  0.63586088     1.36900
C418        C  0.29661676  0.75439163  0.66749768     0.77600
O419        O  0.26851285  0.79813749  0.63818141    -0.60800
O420        O  0.23046229  0.78804356  0.64905284    -0.51700
C421        C  0.25100261  0.75225490  0.58514962     0.70300
O422        O  0.27095094  0.74491990  0.59681442    -0.46600
C423        C  0.23431959  0.71536889  0.65500265     0.75000
O424        O  0.29952308  0.75161008  0.64353459    -0.58400
O425        O  0.22512534  0.73756766  0.65785851    -0.48500
O426        O  0.27387704  0.75833555  0.67449390    -0.54900
C427        C  0.24763258  0.80514055  0.64837882     0.85200
O428        O  0.23463781  0.76310125  0.59927432    -0.56700
O429        O  0.25344659  0.71434896  0.64035310    -0.60000
In430      In  0.22636193  0.72300296  0.42745156     1.36900
C431        C  0.22368696  0.68264107  0.39644738     0.77600
O432        O  0.18417102  0.71556840  0.42815011    -0.60800
O433        O  0.19728414  0.75148187  0.41383278    -0.51700
C434        C  0.23225051  0.73097564  0.47759223     0.70300
O435        O  0.23403404  0.70898160  0.46757560    -0.46600
C436        C  0.27065086  0.73953622  0.40876274     0.75000
O437        O  0.22752319  0.68012638  0.42032693    -0.58400
O438        O  0.24981763  0.75152354  0.40547770    -0.48500
O439        O  0.22135572  0.70546314  0.38897170    -0.54900
C440        C  0.17865003  0.73628478  0.41687817     0.85200
O441        O  0.22644544  0.74854190  0.46203293    -0.56700
O442        O  0.26884796  0.72006830  0.42287711    -0.60000
In443      In  0.58949138  0.25427575  0.78825686     1.36900
C444        C  0.62311925  0.29229069  0.79054869     0.77600
O445        O  0.58695035  0.26386476  0.82975363    -0.60800
O446        O  0.59943865  0.22641169  0.81930814    -0.51700
C447        C  0.53935594  0.25145664  0.78007529     0.70300
O448        O  0.55189474  0.27191739  0.77711166    -0.46600
C449        C  0.60903519  0.23325043  0.74625684     0.75000
O450        O  0.59942912  0.29645123  0.78693360    -0.58400
O451        O  0.61058785  0.22271125  0.76798696    -0.48500
O452        O  0.62907885  0.26901514  0.79273904    -0.54900
C453        C  0.59655404  0.24283259  0.83692549     0.85200
O454        O  0.55244292  0.23276531  0.78814477    -0.56700
O455        O  0.59580890  0.25348128  0.74588135    -0.60000
In456      In  0.38104754  0.24323141  0.74854537     1.36900
C457        C  0.36353819  0.23580998  0.70146790     0.77600
O458        O  0.37325241  0.20372339  0.76340227    -0.60800
O459        O  0.34231757  0.23020755  0.76094765    -0.51700
C460        C  0.43148564  0.24197336  0.75662385     0.70300
O461        O  0.42162282  0.25088164  0.73647454    -0.46600
C462        C  0.36569901  0.28700993  0.76970813     0.75000
O463        O  0.37213737  0.21765422  0.71485549    -0.58400
O464        O  0.36746628  0.26645873  0.78230044    -0.48500
O465        O  0.36788479  0.25776396  0.71045743    -0.54900
C466        C  0.34940962  0.20760123  0.76581958     0.85200
O467        O  0.41560917  0.23262902  0.77213465    -0.56700
O468        O  0.37328197  0.28531755  0.74688895    -0.60000
In469      In  0.71347442  0.59298292  0.79415929     1.36900
C470        C  0.67440497  0.62538839  0.79596495     0.77600
O471        O  0.70578058  0.59203381  0.83635556    -0.60800
O472        O  0.74193263  0.60600451  0.82362731    -0.51700
C473        C  0.72103675  0.54279913  0.78789052     0.70300
O474        O  0.69924316  0.55207099  0.79328978    -0.46600
C475        C  0.72940046  0.61308169  0.75025607     0.75000
O476        O  0.67116714  0.60198658  0.79015518    -0.58400
O477        O  0.74245492  0.61414184  0.77070406    -0.48500
O478        O  0.69726094  0.63161081  0.80066125    -0.54900
C479        C  0.72654067  0.60302665  0.84212477     0.85200
O480        O  0.73872023  0.55913855  0.78622885    -0.56700
O481        O  0.70901627  0.60017094  0.75204357    -0.60000
In482      In  0.74919423  0.38485526  0.76339738     1.36900
C483        C  0.75173876  0.35479323  0.72210646     0.77600
O484        O  0.79161289  0.38657620  0.75784383    -0.60800
O485        O  0.77753587  0.37238267  0.79332076    -0.51700
C486        C  0.74128658  0.43496744  0.77030430     0.70300
O487        O  0.74885525  0.42574438  0.74921776    -0.46600
C488        C  0.70729569  0.36193299  0.78038054     0.75000
O489        O  0.74323997  0.37751601  0.72063425    -0.58400
O490        O  0.72852282  0.36047595  0.79200922    -0.48500
O491        O  0.75874905  0.34825173  0.74422596    -0.54900
C492        C  0.79662353  0.37545691  0.77873284     0.85200
O493        O  0.73828084  0.41859716  0.78776294    -0.56700
O494        O  0.70731814  0.37645356  0.76105862    -0.60000
In495      In  0.58611464  0.75436143  0.76687341     1.36900
C496        C  0.61854327  0.75745142  0.72808117     0.77600
O497        O  0.58475622  0.79655219  0.75939525    -0.60800
O498        O  0.59893016  0.78364478  0.79551276    -0.51700
C499        C  0.53611618  0.74660548  0.77256240     0.70300
O500        O  0.54717876  0.74400770  0.75118285    -0.46600
C501        C  0.60560729  0.71019119  0.78323054     0.75000
O502        O  0.59466689  0.75449968  0.72431814    -0.58400
O503        O  0.60652808  0.73037107  0.79663759    -0.48500
O504        O  0.62506645  0.75900862  0.75127792    -0.54900
C505        C  0.59581121  0.80222473  0.78022767     0.85200
O506        O  0.55041680  0.75434634  0.79045449    -0.56700
O507        O  0.59328254  0.71254452  0.76260810    -0.60000
In508      In  0.38005526  0.71386792  0.79644102     1.36900
C509        C  0.34781518  0.67490145  0.79809876     0.77600
O510        O  0.38073509  0.70512392  0.83840805    -0.60800
O511        O  0.36738754  0.74178313  0.82628635    -0.51700
C512        C  0.43003455  0.72081294  0.79076616     0.70300
O513        O  0.41970790  0.69924910  0.78690123    -0.46600
C514        C  0.36182852  0.73371652  0.75317369     0.75000
O515        O  0.37176309  0.67127095  0.79563799    -0.58400
O516        O  0.35951082  0.74467571  0.77463560    -0.48500
O517        O  0.34102042  0.69802423  0.79942457    -0.54900
C518        C  0.37002036  0.72599272  0.84448339     0.85200
O519        O  0.41488830  0.73804141  0.79836422    -0.56700
O520        O  0.37469235  0.71324773  0.75380354    -0.60000
In521      In  0.75285796  0.59293040  0.30311132     1.36900
C522        C  0.75341759  0.62335009  0.34359493     0.77600
O523        O  0.79480068  0.59408468  0.31230808    -0.60800
O524        O  0.78240886  0.60639528  0.27536453    -0.51700
C525        C  0.74700887  0.54271444  0.29766891     0.70300
O526        O  0.74118448  0.55425506  0.31810892    -0.46600
C527        C  0.71048187  0.61186808  0.28199679     0.75000
O528        O  0.75153101  0.59929790  0.34603720    -0.58400
O529        O  0.73216726  0.61373769  0.27144826    -0.48500
O530        O  0.75478059  0.63123080  0.32085464    -0.54900
C531        C  0.80052972  0.60490658  0.29143234     0.85200
O532        O  0.75666222  0.55677204  0.28061994    -0.56700
O533        O  0.71047724  0.59907395  0.30242643    -0.60000
In534      In  0.71777222  0.38636206  0.27231003     1.36900
C535        C  0.67652035  0.35722248  0.26982189     0.77600
O536        O  0.70995998  0.38755306  0.23017134    -0.60800
O537        O  0.74476128  0.37018035  0.24279509    -0.51700
C538        C  0.72564542  0.43607061  0.27838093     0.70300
O539        O  0.70362776  0.42621002  0.28015697    -0.46600
C540        C  0.73477486  0.36783184  0.31669079     0.75000
O541        O  0.67478068  0.38097296  0.27455694    -0.58400
O542        O  0.74762877  0.36632836  0.29621619    -0.48500
O543        O  0.69904341  0.34898278  0.26675260    -0.54900
C544        C  0.72945328  0.37433872  0.22438921     0.85200
O545        O  0.74323383  0.42067323  0.27215701    -0.56700
O546        O  0.71389392  0.37975951  0.31445745    -0.60000
In547      In  0.74371442  0.72375810  0.63608317     1.36900
C548        C  0.74386789  0.68273198  0.66635933     0.77600
O549        O  0.78600750  0.71631203  0.63418581    -0.60800
O550        O  0.77325314  0.75188016  0.64958919    -0.51700
C551        C  0.73739240  0.73117015  0.58582001     0.70300
O552        O  0.74277027  0.70947386  0.59517446    -0.46600
C553        C  0.70137706  0.74214459  0.65769058     0.75000
O554        O  0.73523694  0.68175989  0.64365611    -0.58400
O555        O  0.72277233  0.75339790  0.65927321    -0.48500
O556        O  0.75277237  0.70418038  0.67275616    -0.54900
C557        C  0.79185599  0.73678427  0.64566601     0.85200
O558        O  0.73587304  0.74891489  0.60212360    -0.56700
O559        O  0.70150212  0.72237904  0.64380148    -0.60000
In560      In  0.71555512  0.75195583  0.42652933     1.36900
C561        C  0.67649939  0.75126347  0.39373378     0.77600
O562        O  0.70870076  0.79434370  0.42602238    -0.60800
O563        O  0.74413470  0.78027573  0.41151398    -0.51700
C564        C  0.72167727  0.74782718  0.47710717     0.70300
O565        O  0.70015008  0.75305143  0.46713223    -0.46600
C566        C  0.73392272  0.70750471  0.40981081     0.75000
O567        O  0.67331680  0.74610435  0.41727221    -0.58400
O568        O  0.74612025  0.72831371  0.40772651    -0.48500
O569        O  0.69921642  0.75667526  0.38767957    -0.54900
C570        C  0.72926880  0.79925218  0.41427070     0.85200
O571        O  0.73983073  0.74585247  0.46131450    -0.56700
O572        O  0.71289415  0.70940648  0.42162662    -0.60000
In573      In  0.25297981  0.59137394  0.26980318     1.36900
C574        C  0.29476887  0.61999233  0.26650889     0.77600
O575        O  0.26055988  0.58904439  0.22746869    -0.60800
O576        O  0.22569150  0.60621644  0.24018538    -0.51700
C577        C  0.24434073  0.54168727  0.27626939     0.70300
O578        O  0.26592338  0.55170951  0.28067680    -0.46600
C579        C  0.23523265  0.61210361  0.31319554     0.75000
O580        O  0.29626648  0.59613971  0.27077441    -0.58400
O581        O  0.22344691  0.61382938  0.29209639    -0.48500
O582        O  0.27229099  0.62852303  0.26410372    -0.54900
C583        C  0.24054937  0.60146822  0.22160552     0.85200
O584        O  0.22756705  0.55694706  0.26785451    -0.56700
O585        O  0.25516414  0.59846229  0.31224180    -0.60000
In586      In  0.21796027  0.38466920  0.29937060     1.36900
C587        C  0.21710375  0.34998708  0.33614156     0.77600
O588        O  0.17611451  0.38384995  0.30827441    -0.60800
O589        O  0.18849158  0.37299549  0.27079829    -0.51700
C590        C  0.22288769  0.43491305  0.29513561     0.70300
O591        O  0.22641861  0.42339856  0.31617691    -0.46600
C592        C  0.26264695  0.36881864  0.28117708     0.75000
O593        O  0.21909541  0.37368096  0.34120068    -0.58400
O594        O  0.24191087  0.36557198  0.26898687    -0.48500
O595        O  0.21566430  0.34463585  0.31264596    -0.54900
C596        C  0.17028284  0.37420020  0.28680507     0.85200
O597        O  0.21550440  0.42078158  0.27695952    -0.56700
O598        O  0.26040469  0.38169952  0.30147010    -0.60000
In599      In  0.59135014  0.71591347  0.26449255     1.36900
C600        C  0.62558088  0.67853518  0.26311545     0.77600
O601        O  0.59007684  0.70678229  0.22269940    -0.60800
O602        O  0.60277231  0.74384886  0.23423362    -0.51700
C603        C  0.54141038  0.72164524  0.27098029     0.70300
O604        O  0.55216558  0.69993668  0.27242919    -0.46600
C605        C  0.60957552  0.73471823  0.30802043     0.75000
O606        O  0.60187627  0.67394516  0.26620000    -0.58400
O607        O  0.61131830  0.74640658  0.28688727    -0.48500
O608        O  0.63114866  0.70187870  0.26083038    -0.54900
C609        C  0.60027398  0.72774392  0.21627259     0.85200
O610        O  0.55612424  0.73984800  0.26513606    -0.56700
O611        O  0.59675429  0.71427915  0.30708225    -0.60000
In612      In  0.38497481  0.74480114  0.29996911     1.36900
C613        C  0.35471683  0.74695099  0.34018790     0.77600
O614        O  0.38484535  0.78650254  0.30986295    -0.60800
O615        O  0.37169472  0.77513754  0.27286491    -0.51700
C616        C  0.43497464  0.74096337  0.29307771     0.70300
O617        O  0.42459130  0.73644502  0.31444902    -0.46600
C618        C  0.36599615  0.70117760  0.28132791     0.75000
O619        O  0.37842474  0.74203862  0.34262293    -0.58400
O620        O  0.36392960  0.72228506  0.26965613    -0.48500
O621        O  0.34705069  0.75006271  0.31749150    -0.54900
C622        C  0.37422855  0.79302052  0.28908040     0.85200
O623        O  0.41985432  0.74818412  0.27565741    -0.56700
O624        O  0.37921524  0.70230106  0.30150515    -0.60000
C625        C  0.51396795  0.72599731  0.27634401    -0.05400
C626        C  0.50183409  0.74780173  0.26617349    -0.32800
C627        C  0.47617268  0.75316708  0.27181057     0.36400
C628        C  0.46243281  0.73692907  0.28830855    -0.05800
C629        C  0.47463515  0.71548018  0.29894367    -0.32700
C630        C  0.50008112  0.70965760  0.29268964     0.36300
H631        H  0.51223453  0.76066337  0.25366338     0.16700
O632        O  0.46474879  0.77435970  0.26119556    -0.60200
H633        H  0.46416169  0.70274232  0.31152343     0.16700
O634        O  0.51139656  0.68842936  0.30330561    -0.60300
H635        H  0.50584900  0.67389106  0.29240040     0.43700
H636        H  0.46706412  0.78819692  0.27401539     0.43700
C637        C  0.31695929  0.63742667  0.26551006    -0.05400
C638        C  0.33726414  0.63440761  0.28287005    -0.32800
C639        C  0.35472219  0.65440242  0.28700938     0.36400
C640        C  0.35215793  0.67767238  0.27334998    -0.05800
C641        C  0.33343489  0.67943843  0.25406968    -0.32700
C642        C  0.31587210  0.65961771  0.25018090     0.36300
H643        H  0.33838319  0.61741893  0.29473926     0.16700
O644        O  0.37288328  0.65167464  0.30585267    -0.60200
H645        H  0.33123237  0.69692657  0.24311447     0.16700
O646        O  0.29662437  0.66286906  0.23249928    -0.60300
H647        H  0.30290808  0.65436558  0.21670574     0.43700
H648        H  0.38827701  0.64486871  0.29699782     0.43700
C649        C  0.23887764  0.51440741  0.28104625    -0.05400
C650        C  0.25017964  0.50198754  0.30207866    -0.32800
C651        C  0.24453043  0.47631203  0.30748331     0.36400
C652        C  0.22770139  0.46255393  0.29140913    -0.05800
C653        C  0.21662319  0.47500845  0.27024611    -0.32700
C654        C  0.22199027  0.50070909  0.26508162     0.36300
H655        H  0.26323444  0.51229661  0.31452098     0.16700
O656        O  0.25650891  0.46456433  0.32774930    -0.60200
H657        H  0.20384764  0.46472598  0.25749654     0.16700
O658        O  0.21106069  0.51207426  0.24402184    -0.60300
H659        H  0.22420489  0.51082762  0.23034641     0.43700
H660        H  0.24651499  0.46970100  0.34307847     0.43700
C661        C  0.65608138  0.75053780  0.37400411    -0.05400
C662        C  0.66010285  0.76381988  0.35095950    -0.32800
C663        C  0.64401372  0.76016810  0.32985208     0.36400
C664        C  0.62333027  0.74293166  0.33146224    -0.05800
C665        C  0.61822500  0.73094048  0.35506730    -0.32700
C666        C  0.63429607  0.73483517  0.37633714     0.36300
H667        H  0.67655246  0.77630031  0.34886195     0.16700
O668        O  0.64967201  0.77243364  0.30731395    -0.60200
H669        H  0.60240152  0.71763075  0.35674052     0.16700
O670        O  0.62969700  0.72159335  0.39853039    -0.60300
H671        H  0.61830826  0.73288420  0.40874943     0.43700
H672        H  0.66277580  0.76154283  0.29883475     0.43700
C673        C  0.73308820  0.73554743  0.55806355    -0.05400
C674        C  0.74581885  0.72022561  0.54000618    -0.32800
C675        C  0.74247395  0.72439070  0.51366849     0.36400
C676        C  0.72552378  0.74359602  0.50491631    -0.05800
C677        C  0.71234376  0.75859221  0.52293464    -0.32700
C678        C  0.71623241  0.75489319  0.54931200     0.36300
H679        H  0.75871693  0.70519040  0.54632020     0.16700
O680        O  0.75506187  0.70883746  0.49659763    -0.60200
H681        H  0.69926530  0.77343862  0.51654509     0.16700
O682        O  0.70319251  0.77009883  0.56635500    -0.60300
H683        H  0.68781611  0.76008290  0.57124310     0.43700
H684        H  0.77224033  0.71665916  0.49443034     0.43700
C685        C  0.64577779  0.65869024  0.26333119    -0.05400
C686        C  0.64221657  0.63624251  0.27756632    -0.32800
C687        C  0.66283818  0.61968687  0.28233440     0.36400
C688        C  0.68740936  0.62540215  0.27260332    -0.05800
C689        C  0.69035399  0.64657064  0.25635580    -0.32700
C690        C  0.66984847  0.66331369  0.25188229     0.36300
H691        H  0.62382134  0.63230801  0.28634930     0.16700
O692        O  0.65903918  0.59874244  0.29769076    -0.60200
H693        H  0.70898601  0.65113463  0.24840512     0.16700
O694        O  0.67366340  0.68440594  0.23667773    -0.60300
H695        H  0.68269388  0.69697905  0.24770918     0.43700
H696        H  0.65439355  0.58468157  0.28578730     0.43700
C697        C  0.74262952  0.68340278  0.39754737    -0.05400
C698        C  0.76320281  0.68434814  0.38024250    -0.32800
C699        C  0.76834358  0.66374714  0.36394788     0.36400
C700        C  0.75308138  0.64158686  0.36503948    -0.05800
C701        C  0.73438657  0.63940142  0.38414160    -0.32700
C702        C  0.72883353  0.66026279  0.40017428     0.36300
H703        H  0.77429408  0.70173060  0.37805892     0.16700
O704        O  0.78724250  0.66609791  0.34582400    -0.60200
H705        H  0.72259842  0.62236807  0.38521142     0.16700
O706        O  0.70912990  0.65819484  0.41744031    -0.60300
H707        H  0.69323822  0.66096029  0.40731935     0.43700
H708        H  0.80321959  0.66046531  0.35450670     0.43700
C709        C  0.74227386  0.51514730  0.29357093    -0.05400
C710        C  0.72256793  0.50277705  0.30706121    -0.32800
C711        C  0.71662748  0.47709377  0.30202055     0.36400
C712        C  0.73077113  0.46333316  0.28356168    -0.05800
C713        C  0.75090715  0.47549938  0.27065802    -0.32700
C714        C  0.75661038  0.50119874  0.27541643     0.36300
H715        H  0.71144756  0.51315235  0.32121489     0.16700
O716        O  0.69776197  0.46533806  0.31601017    -0.60200
H717        H  0.76216769  0.46508647  0.25664053     0.16700
O718        O  0.77636026  0.51244677  0.26226882    -0.60300
H719        H  0.79167119  0.51017993  0.27335220     0.43700
H720        H  0.68165395  0.46855626  0.30639195     0.43700
C721        C  0.67859911  0.75018190  0.67259358    -0.05400
C722        C  0.68213557  0.76545038  0.69441734    -0.32800
C723        C  0.66221537  0.76908444  0.71195958     0.36400
C724        C  0.63799154  0.75790046  0.70752723    -0.05800
C725        C  0.63376627  0.74448397  0.68462095    -0.32700
C726        C  0.65390898  0.74042200  0.66727507     0.36300
H727        H  0.70085395  0.77332537  0.69879285     0.16700
O728        O  0.66679799  0.78318854  0.73369352    -0.60200
H729        H  0.61527392  0.73580533  0.68087714     0.16700
O730        O  0.64952746  0.72583984  0.64585599    -0.60300
H731        H  0.64471171  0.73825003  0.63229117     0.43700
H732        H  0.67613643  0.77148355  0.74544159     0.43700
C733        C  0.45748542  0.72622025  0.78644544    -0.05400
C734        C  0.46873012  0.74686945  0.79947679    -0.32800
C735        C  0.49425812  0.75365332  0.79508554     0.36400
C736        C  0.50884938  0.74027202  0.77676164    -0.05800
C737        C  0.49761869  0.71970866  0.76349904    -0.32700
C738        C  0.47219082  0.71244583  0.76843201     0.36300
H739        H  0.45769879  0.75780689  0.81327756     0.16700
O740        O  0.50448884  0.77401962  0.80816093    -0.60200
H741        H  0.50873412  0.70895416  0.74962691     0.16700
O742        O  0.46187551  0.69213877  0.75533019    -0.60300
H743        H  0.45375742  0.69972831  0.73989316     0.43700
H744        H  0.50935849  0.76712063  0.82519762     0.43700
C745        C  0.73624985  0.62737941  0.72664561    -0.05400
C746        C  0.72021216  0.62597313  0.70493799    -0.32800
C747        C  0.72351657  0.64269193  0.68414768     0.36400
C748        C  0.74294306  0.66135416  0.68495173    -0.05800
C749        C  0.75994467  0.66164012  0.70586346    -0.32700
C750        C  0.75686458  0.64481315  0.72646699     0.36300
H751        H  0.70424010  0.61273878  0.70458199     0.16700
O752        O  0.70623006  0.64211983  0.66432489    -0.60200
H753        H  0.77514238  0.67574718  0.70677155     0.16700
O754        O  0.77303995  0.64694803  0.74710704    -0.60300
H755        H  0.78780824  0.63564556  0.74307647     0.43700
H756        H  0.71422563  0.63101292  0.65113077     0.43700
C757        C  0.65370696  0.64471478  0.79624106    -0.05400
C758        C  0.63402898  0.64342734  0.77801315    -0.32800
C759        C  0.61708225  0.66400998  0.77465828     0.36400
C760        C  0.61958300  0.68632718  0.78981934    -0.05800
C761        C  0.63803635  0.68669709  0.80942738    -0.32700
C762        C  0.65516631  0.66622366  0.81255764     0.36300
H763        H  0.63269910  0.62706824  0.76529595     0.16700
O764        O  0.59910157  0.66261094  0.75550358    -0.60200
H765        H  0.64015641  0.70345671  0.82149335     0.16700
O766        O  0.67344730  0.66750303  0.83147645    -0.60300
H767        H  0.68729259  0.67839616  0.82439335     0.43700
H768        H  0.58376851  0.65491099  0.76363639     0.43700
C769        C  0.72575535  0.51514654  0.78340402    -0.05400
C770        C  0.74426131  0.50758621  0.76532578    -0.32800
C771        C  0.74915510  0.48160145  0.76049881     0.36400
C772        C  0.73605404  0.46259987  0.77442678    -0.05800
C773        C  0.71776971  0.47017096  0.79274785    -0.32700
C774        C  0.71232364  0.49616109  0.79701437     0.36300
H775        H  0.75471436  0.52191453  0.75458241     0.16700
O776        O  0.76689574  0.47504601  0.74223233    -0.60200
H777        H  0.70739278  0.45585709  0.80358201     0.16700
O778        O  0.69404410  0.50275913  0.81472378    -0.60300
H779        H  0.70366827  0.50616903  0.83077167     0.43700
H780        H  0.78307559  0.47201896  0.75179648     0.43700
C781        C  0.64291255  0.31246685  0.79165909    -0.05400
C782        C  0.66650521  0.30690537  0.80351723    -0.32800
C783        C  0.68719868  0.32378023  0.80166484     0.36400
C784        C  0.68461711  0.34655846  0.78741440    -0.05800
C785        C  0.66055622  0.35288850  0.77696731    -0.32700
C786        C  0.63975691  0.33608807  0.77907494     0.36300
H787        H  0.66924516  0.28890714  0.81350134     0.16700
O788        O  0.71037274  0.31671578  0.81199949    -0.60200
H789        H  0.65814021  0.37041151  0.76610928     0.16700
O790        O  0.61694886  0.34232541  0.76750573    -0.60300
H791        H  0.61860290  0.33619920  0.74958487     0.43700
H792        H  0.71022975  0.32362851  0.82970467     0.43700
C793        C  0.51169894  0.24922534  0.77411121    -0.05400
C794        C  0.49765524  0.22842238  0.78379326    -0.32800
C795        C  0.47155596  0.22561492  0.77807858     0.36400
C796        C  0.45919839  0.24351477  0.76206596    -0.05800
C797        C  0.47331174  0.26399006  0.75198580    -0.32700
C798        C  0.49922835  0.26715236  0.75816498     0.36300
H799        H  0.50688131  0.21437261  0.79601130     0.16700
O800        O  0.45838192  0.20528051  0.78818224    -0.60200
H801        H  0.46405811  0.27799914  0.73973408     0.16700
O802        O  0.51230329  0.28747200  0.74792690    -0.60300
H803        H  0.50899497  0.30197563  0.75976079     0.43700
H804        H  0.45782848  0.19230282  0.77430663     0.43700
C805        C  0.33660643  0.74900976  0.36160708    -0.05400
C806        C  0.31573935  0.76581567  0.35901952    -0.32800
C807        C  0.29511184  0.76479674  0.37597154     0.36400
C808        C  0.29476174  0.74610555  0.39541946    -0.05800
C809        C  0.31679151  0.73093465  0.39944256    -0.32700
C810        C  0.33782023  0.73253529  0.38283712     0.36300
H811        H  0.31490504  0.77909100  0.34306727     0.16700
O812        O  0.27461044  0.78082397  0.37203896    -0.60200
H813        H  0.31714093  0.71672154  0.41455569     0.16700
O814        O  0.35819438  0.71618711  0.38608217    -0.60300
H815        H  0.37082369  0.72596011  0.39638909     0.43700
H816        H  0.27838662  0.79628464  0.38241651     0.43700
C817        C  0.22260226  0.66116478  0.37797740    -0.05400
C818        C  0.20735185  0.66374126  0.35590737    -0.32800
C819        C  0.20944480  0.64635355  0.33557086     0.36400
C820        C  0.22779954  0.62650591  0.33662299    -0.05800
C821        C  0.24159737  0.62278181  0.35956285    -0.32700
C822        C  0.23878120  0.63970609  0.38030070     0.36300
H823        H  0.19438651  0.67989368  0.35401333     0.16700
O824        O  0.19481764  0.65017016  0.31403896    -0.60200
H825        H  0.25555841  0.60744657  0.36101173     0.16700
O826        O  0.25370941  0.63643857  0.40171171    -0.60300
H827        H  0.24387207  0.62461145  0.41282113     0.43700
H828        H  0.17845804  0.64114512  0.31746667     0.43700
C829        C  0.31734095  0.75284800  0.68671737    -0.05400
C830        C  0.31456766  0.76704574  0.70939776    -0.32800
C831        C  0.33025249  0.76239297  0.73060044     0.36400
C832        C  0.34897175  0.74290115  0.72954653    -0.05800
C833        C  0.35309216  0.73005022  0.70615713    -0.32700
C834        C  0.33745399  0.73495852  0.68477849     0.36300
H835        H  0.29929150  0.78106663  0.71112271     0.16700
O836        O  0.32563861  0.77564231  0.75283033    -0.60200
H837        H  0.36756698  0.71518934  0.70480603     0.16700
O838        O  0.34086970  0.72093670  0.66280755    -0.60300
H839        H  0.32981238  0.70564360  0.66486443     0.43700
H840        H  0.33709116  0.79075754  0.75205906     0.43700
C841        C  0.24667853  0.74750959  0.55743791    -0.05400
C842        C  0.25770783  0.72584990  0.54583414    -0.32800
C843        C  0.25261741  0.71984552  0.52011230     0.36400
C844        C  0.23695889  0.73609591  0.50518919    -0.05800
C845        C  0.22630353  0.75802401  0.51668070    -0.32700
C846        C  0.23072381  0.76357149  0.54262359     0.36300
H847        H  0.26985054  0.71313415  0.55692965     0.16700
O848        O  0.26368468  0.69844059  0.50958787    -0.60200
H849        H  0.21420101  0.77077981  0.50558742     0.16700
O850        O  0.21933197  0.78475261  0.55326146    -0.60300
H851        H  0.23219850  0.79861956  0.55167988     0.43700
H852        H  0.25174590  0.68423528  0.51358057     0.43700
C853        C  0.75151080  0.32117963  0.38182304    -0.05400
C854        C  0.73194741  0.33950834  0.38354956    -0.32800
C855        C  0.72728559  0.35631871  0.36313514     0.36400
C856        C  0.74253133  0.35494851  0.34075291    -0.05800
C857        C  0.76372853  0.33835507  0.34038569    -0.32700
C858        C  0.76816541  0.32144628  0.36062038     0.36300
H859        H  0.71900473  0.33945514  0.39978653     0.16700
O860        O  0.70662170  0.37256026  0.36453839    -0.60200
H861        H  0.77593489  0.33721664  0.32363383     0.16700
O862        O  0.78783477  0.30404314  0.35871005    -0.60300
H863        H  0.80228981  0.31174616  0.36835938     0.43700
H864        H  0.71352285  0.38871523  0.37175054     0.43700
C865        C  0.74753394  0.29414935  0.66685120    -0.05400
C866        C  0.73437542  0.31729680  0.66215569    -0.32800
C867        C  0.73713547  0.33836976  0.67871596     0.36400
C868        C  0.75284541  0.33624504  0.70059423    -0.05800
C869        C  0.76789906  0.31409608  0.70369469    -0.32700
C870        C  0.76542580  0.29324028  0.68709063     0.36300
H871        H  0.72083739  0.31861940  0.64643559     0.16700
O872        O  0.72280188  0.36000638  0.67447327    -0.60200
H873        H  0.78072380  0.31230703  0.71996839     0.16700
O874        O  0.77949439  0.27151910  0.69186691    -0.60300
H875        H  0.76963337  0.26197790  0.70499435     0.43700
H876        H  0.73399887  0.37136492  0.66418737     0.43700
C877        C  0.65915591  0.21955946  0.68328791    -0.05400
C878        C  0.66298325  0.20643641  0.70646349    -0.32800
C879        C  0.64522613  0.20844566  0.72641043     0.36400
C880        C  0.62356363  0.22440192  0.72357438    -0.05800
C881        C  0.61851614  0.23544999  0.69949305    -0.32700
C882        C  0.63597761  0.23279033  0.67927439     0.36300
H883        H  0.68048793  0.19563346  0.70962498     0.16700
O884        O  0.65063550  0.19683137  0.74936462    -0.60200
H885        H  0.60177331  0.24748814  0.69678355     0.16700
O886        O  0.63140714  0.24540631  0.65668260    -0.60300
H887        H  0.62402653  0.23230416  0.64506691     0.43700
H888        H  0.64299029  0.17950837  0.74803127     0.43700
C889        C  0.73049693  0.23512025  0.55728972    -0.05400
C890        C  0.71994906  0.25681994  0.54546175    -0.32800
C891        C  0.72520953  0.26218191  0.51975247     0.36400
C892        C  0.74071428  0.24536072  0.50537694    -0.05800
C893        C  0.75056647  0.22320378  0.51703070    -0.32700
C894        C  0.74569851  0.21811526  0.54286105     0.36300
H895        H  0.70812076  0.26999297  0.55634800     0.16700
O896        O  0.71431622  0.28337619  0.50861713    -0.60200
H897        H  0.76224713  0.20990292  0.50614294     0.16700
O898        O  0.75571521  0.19637878  0.55376823    -0.60300
H899        H  0.74169040  0.18359122  0.55304775     0.43700
H900        H  0.72617888  0.29766998  0.51256727     0.43700
C901        C  0.32987437  0.32346087  0.27157198    -0.05400
C902        C  0.30940696  0.32076141  0.25425309    -0.32800
C903        C  0.28836648  0.33739049  0.25511055     0.36400
C904        C  0.28721675  0.35647610  0.27417323    -0.05800
C905        C  0.30887287  0.36067023  0.28977286    -0.32700
C906        C  0.33017753  0.34436851  0.28848301     0.36300
H907        H  0.30924156  0.30500637  0.24071063     0.16700
O908        O  0.26826581  0.33346282  0.23859348    -0.60200
H909        H  0.30863943  0.37554935  0.30425160     0.16700
O910        O  0.35020272  0.34785620  0.30519836    -0.60300
H911        H  0.34602487  0.33720334  0.32035530     0.43700
H912        H  0.27183142  0.34466846  0.22368537     0.43700
C913        C  0.62011538  0.29846414  0.27390997    -0.05400
C914        C  0.61652435  0.32131662  0.28784154    -0.32800
C915        C  0.63338150  0.34199149  0.28490321     0.36400
C916        C  0.65457469  0.33958330  0.26845920    -0.05800
C917        C  0.65676373  0.31778700  0.25287101    -0.32700
C918        C  0.63954623  0.29748034  0.25519631     0.36300
H919        H  0.60149966  0.32266486  0.30210805     0.16700
O920        O  0.63039389  0.36331039  0.29997539    -0.60200
H921        H  0.67270813  0.31592167  0.23967502     0.16700
O922        O  0.64335815  0.27594049  0.24063989    -0.60300
H923        H  0.63407432  0.27926572  0.22437246     0.43700
H924        H  0.61850701  0.37458453  0.29029312     0.43700
C925        C  0.64281852  0.23053495  0.35897236    -0.05400
C926        C  0.63896521  0.24236447  0.38280923    -0.32800
C927        C  0.65929862  0.24467219  0.40026705     0.36400
C928        C  0.68373086  0.23483508  0.39394286    -0.05800
C929        C  0.68691874  0.22138475  0.37094457    -0.32700
C930        C  0.66685821  0.21941146  0.35341781     0.36300
H931        H  0.62054959  0.25084944  0.38741216     0.16700
O932        O  0.65530815  0.25742248  0.42290653    -0.60200
H933        H  0.70548353  0.21357667  0.36575616     0.16700
O934        O  0.67104996  0.20667729  0.33077570    -0.60300
H935        H  0.68039946  0.21897278  0.31973370     0.43700
H936        H  0.65412508  0.24384622  0.43613400     0.43700
C937        C  0.51099643  0.24237615  0.29351696    -0.05400
C938        C  0.49686973  0.22649747  0.27710065    -0.32800
C939        C  0.47090167  0.23127354  0.27236909     0.36400
C940        C  0.45861379  0.25239750  0.28395065    -0.05800
C941        C  0.47289551  0.26862569  0.29999974    -0.32700
C942        C  0.49888685  0.26364394  0.30494856     0.36300
H943        H  0.50600658  0.21024819  0.26791921     0.16700
O944        O  0.45779730  0.21524004  0.25617794    -0.60200
H945        H  0.46384528  0.28504659  0.30894781     0.16700
O946        O  0.51260551  0.28041142  0.31983864    -0.60300
H947        H  0.50929704  0.27507582  0.33776230     0.43700
H948        H  0.45792794  0.22395779  0.23929484     0.43700
C949        C  0.31700578  0.34880519  0.79063611    -0.05400
C950        C  0.33547867  0.35274018  0.77160151    -0.32800
C951        C  0.35345163  0.33354649  0.76600927     0.36400
C952        C  0.35313032  0.31029066  0.77982197    -0.05800
C953        C  0.33678256  0.30796728  0.80101920    -0.32700
C954        C  0.31863397  0.32694653  0.80632134     0.36300
H955        H  0.33448612  0.36957471  0.75950284     0.16700
O956        O  0.36966488  0.33681674  0.74560584    -0.60200
H957        H  0.33641841  0.29043625  0.81211217     0.16700
O958        O  0.30115166  0.32298886  0.82553424    -0.60300
H959        H  0.30950576  0.32963510  0.84125965     0.43700
H960        H  0.38489697  0.34564569  0.75276092     0.43700
C961        C  0.32843326  0.65441879  0.79867179    -0.05400
C962        C  0.30598908  0.65848211  0.81294707    -0.32800
C963        C  0.28427416  0.64329948  0.80904730     0.36400
C964        C  0.28475719  0.62370365  0.79044980    -0.05800
C965        C  0.30805619  0.61813193  0.77796924    -0.32700
C966        C  0.32990009  0.63320037  0.78216899     0.36300
H967        H  0.30476123  0.67451673  0.82610352     0.16700
O968        O  0.26225620  0.64893439  0.82230632    -0.60200
H969        H  0.30895431  0.60301843  0.76376290     0.16700
O970        O  0.35158696  0.62868487  0.76801705    -0.60300
H971        H  0.36227163  0.61720486  0.77878665     0.43700
H972        H  0.25424393  0.66341819  0.81292916     0.43700
C973        C  0.21793347  0.65054116  0.70248575    -0.05400
C974        C  0.20763228  0.67469686  0.70848803    -0.32800
C975        C  0.21120206  0.69564512  0.69226700     0.36400
C976        C  0.22532127  0.69271747  0.66944037    -0.05800
C977        C  0.23423322  0.66817657  0.66261716    -0.32700
C978        C  0.23063648  0.64715907  0.67894713     0.36300
H979        H  0.19768296  0.67768492  0.72647379     0.16700
O980        O  0.20285987  0.71929119  0.70017915    -0.60200
H981        H  0.24518147  0.66550803  0.64518045     0.16700
O982        O  0.24093126  0.62386705  0.67239507    -0.60300
H983        H  0.25875721  0.62417999  0.67906780     0.43700
H984        H  0.18545914  0.72121715  0.69271519     0.43700
C985        C  0.22212068  0.51806515  0.76712260    -0.05400
C986        C  0.23974646  0.50483722  0.75171622    -0.32800
C987        C  0.24536967  0.47903536  0.75637215     0.36400
C988        C  0.23318670  0.46602146  0.77664102    -0.05800
C989        C  0.21456996  0.47890024  0.79118958    -0.32700
C990        C  0.20894630  0.50470043  0.78651071     0.36300
H991        H  0.24976381  0.51470178  0.73646641     0.16700
O992        O  0.26223672  0.46653256  0.74052013    -0.60200
H993        H  0.20458703  0.46905771  0.80647671     0.16700
O994        O  0.19055675  0.51667065  0.80101710    -0.60300
H995        H  0.17420552  0.51377578  0.79171877     0.43700
H996        H  0.27952557  0.47077671  0.74722028     0.43700
C997        C  0.22555178  0.28802253  0.38909434    -0.05400
C998        C  0.21014667  0.28508190  0.36724720    -0.32800
C999        C  0.20607772  0.30560093  0.35054613     0.36400
C1000       C  0.21733729  0.32962210  0.35568447    -0.05800
C1001       C  0.23107741  0.33309966  0.37850966    -0.32700
C1002       C  0.23532172  0.31249423  0.39513728     0.36300
H1003       H  0.20232973  0.26650016  0.36233577     0.16700
O1004       O  0.19195727  0.30164794  0.32868818    -0.60200
H1005       H  0.23974248  0.35145555  0.38278961     0.16700
O1006       O  0.25003219  0.31627645  0.41661328    -0.60300
H1007       H  0.23759476  0.31826257  0.43084733     0.43700
H1008       H  0.17411918  0.30639978  0.33331376     0.43700
C1009       C  0.31742197  0.22326529  0.38328824    -0.05400
C1010       C  0.33465083  0.24361869  0.38600657    -0.32800
C1011       C  0.35166864  0.24958921  0.36615921     0.36400
C1012       C  0.35190333  0.23459326  0.34359020    -0.05800
C1013       C  0.33688052  0.21236543  0.34251829    -0.32700
C1014       C  0.31955603  0.20677684  0.36205360     0.36300
H1015       H  0.33329328  0.25633850  0.40237216     0.16700
O1016       O  0.36668733  0.27102180  0.36836629    -0.60200
H1017       H  0.33704633  0.20031832  0.32560517     0.16700
O1018       O  0.30334359  0.18630277  0.35922809    -0.60300
H1019       H  0.31248926  0.17165271  0.36718039     0.43700
H1020       H  0.35542670  0.28554085  0.36339008     0.43700
C1021       C  0.30002000  0.23684229  0.65127675    -0.05400
C1022       C  0.30431391  0.21519390  0.66667181    -0.32800
C1023       C  0.32720168  0.21259747  0.68065347     0.36400
C1024       C  0.34587732  0.23210977  0.67966580    -0.05800
C1025       C  0.34290912  0.25197289  0.66188079    -0.32700
C1026       C  0.32044867  0.25415579  0.64736491     0.36300
H1027       H  0.28919629  0.20127483  0.66946827     0.16700
O1028       O  0.32991657  0.19230492  0.69715485    -0.60200
H1029       H  0.35721512  0.26694821  0.66062605     0.16700
O1030       O  0.31792672  0.27456807  0.63102698    -0.60300
H1031       H  0.32092815  0.26741726  0.61367198     0.43700
H1032       H  0.32072675  0.19743392  0.71298818     0.43700
C1033       C  0.22171166  0.31771046  0.68408796    -0.05400
C1034       C  0.21048107  0.31145740  0.70770046    -0.32800
C1035       C  0.21103850  0.32861244  0.72821169     0.36400
C1036       C  0.22345560  0.35237445  0.72546406    -0.05800
C1037       C  0.23299350  0.35939118  0.70123377    -0.32700
C1038       C  0.23196137  0.34231432  0.68051536     0.36300
H1039       H  0.20203316  0.29273132  0.71060418     0.16700
O1040       O  0.20145833  0.32093453  0.75142682    -0.60200
H1041       H  0.24251443  0.37763172  0.69867219     0.16700
O1042       O  0.24307019  0.34900212  0.65767813    -0.60300
H1043       H  0.22990500  0.35931024  0.64859083     0.43700
H1044       H  0.18296699  0.32541808  0.75088011     0.43700
C1045       C  0.22771094  0.25117717  0.55356475    -0.05400
C1046       C  0.25019924  0.25964813  0.54163439    -0.32800
C1047       C  0.25556657  0.25284838  0.51627822     0.36400
C1048       C  0.23782018  0.23812296  0.50218462    -0.05800
C1049       C  0.21468658  0.23077116  0.51379152    -0.32700
C1050       C  0.20972143  0.23692290  0.53942292     0.36300
H1051       H  0.26423762  0.27055613  0.55238535     0.16700
O1052       O  0.27802210  0.26104436  0.50536742    -0.60200
H1053       H  0.20068142  0.21972322  0.50315548     0.16700
O1054       O  0.18738839  0.22870383  0.55054748    -0.60300
H1055       H  0.17535366  0.24337186  0.54908996     0.43700
H1056       H  0.29108688  0.24817308  0.51046681     0.43700
C1057       C  0.73848114  0.65233148  0.90561813    -0.05400
C1058       C  0.75944397  0.63882536  0.89534072    -0.32800
C1059       C  0.75576165  0.62042537  0.87617620     0.36400
C1060       C  0.73082813  0.61494217  0.86745427    -0.05800
C1061       C  0.70974731  0.62582072  0.88030458    -0.32700
C1062       C  0.71344093  0.64457892  0.89915349     0.36300
H1063       H  0.77887979  0.64436318  0.90018255     0.16700
O1064       O  0.77675222  0.60965537  0.86454415    -0.60200
H1065       H  0.69037244  0.62172942  0.87397475     0.16700
O1066       O  0.69249684  0.65676852  0.90940981    -0.60300
H1067       H  0.68992337  0.64869751  0.92640676     0.43700
H1068       H  0.77793179  0.59207421  0.87163424     0.43700
C1069       C  0.65033848  0.74126333  0.15404521    -0.05400
C1070       C  0.64392815  0.71606032  0.16062640    -0.32800
C1071       C  0.62467483  0.71116720  0.17863304     0.36400
C1072       C  0.61213578  0.73175046  0.19092664    -0.05800
C1073       C  0.61647242  0.75675341  0.18218254    -0.32700
C1074       C  0.63515394  0.76158663  0.16353445     0.36300
H1075       H  0.65518633  0.70019940  0.15330127     0.16700
O1076       O  0.62018724  0.68633953  0.18594810    -0.60200
H1077       H  0.60679672  0.77276790  0.19122543     0.16700
O1078       O  0.64009153  0.78646198  0.15669543    -0.60300
H1079       H  0.65216757  0.79298977  0.16986762     0.43700
H1080       H  0.63368804  0.68229814  0.19874892     0.43700
C1081       C  0.73743535  0.74744435  0.05757146    -0.05400
C1082       C  0.72385014  0.76086386  0.03863969    -0.32800
C1083       C  0.72784722  0.75566311  0.01262468     0.36400
C1084       C  0.74612738  0.73717618  0.00506944    -0.05800
C1085       C  0.76020381  0.72417587  0.02395066    -0.32700
C1086       C  0.75567183  0.72887136  0.05004731     0.36300
H1087       H  0.70974039  0.77514868  0.04403209     0.16700
O1088       O  0.71390184  0.76897787  0.99470895    -0.60200
H1089       H  0.77440293  0.71001079  0.01848134     0.16700
O1090       O  0.76978492  0.71582135  0.06802013    -0.60300
H1091       H  0.76075079  0.69929447  0.07036498     0.43700
H1092       H  0.72503553  0.78344459  0.98951647     0.43700
C1093       C  0.86041058  0.65878680  0.28138462    -0.05400
C1094       C  0.85115024  0.64522722  0.25999615    -0.32800
C1095       C  0.83336764  0.62540366  0.26298313     0.36400
C1096       C  0.82504987  0.61847969  0.28766205    -0.05800
C1097       C  0.83686084  0.62973480  0.30909870    -0.32700
C1098       C  0.85404766  0.65011406  0.30611666     0.36300
H1099       H  0.85583879  0.65149539  0.24077584     0.16700
O1100       O  0.82261676  0.61448764  0.24161347    -0.60200
H1101       H  0.83081017  0.62458867  0.32827347     0.16700
O1102       O  0.86344263  0.66225770  0.32746767    -0.60300
H1103       H  0.84935234  0.67359601  0.33340225     0.43700
H1104       H  0.83292124  0.59883801  0.23836236     0.43700
C1105       C  0.83075027  0.73114635  0.20651482    -0.05400
C1106       C  0.80739807  0.71872363  0.21135444    -0.32800
C1107       C  0.78659488  0.72137481  0.19464155     0.36400
C1108       C  0.78863415  0.73743411  0.17302628    -0.05800
C1109       C  0.81258009  0.74840134  0.16724400    -0.32700
C1110       C  0.83365701  0.74509652  0.18366619     0.36300
H1111       H  0.80499858  0.70750116  0.22865440     0.16700
O1112       O  0.76391525  0.70956613  0.20066022    -0.60200
H1113       H  0.81473606  0.76038385  0.15044695     0.16700
O1114       O  0.85648995  0.75673035  0.17789154    -0.60300
H1115       H  0.85573828  0.77368420  0.18643941     0.43700
H1116       H  0.76410194  0.69326927  0.19088771     0.43700
C1117       C  0.15343949  0.74068213  0.40468801    -0.05400
C1118       C  0.14054610  0.71957537  0.39405883    -0.32800
C1119       C  0.12189391  0.72307604  0.37503164     0.36400
C1120       C  0.11555371  0.74797727  0.36680710    -0.05800
C1121       C  0.12594286  0.76905931  0.37995039    -0.32700
C1122       C  0.14498264  0.76555234  0.39859413     0.36300
H1123       H  0.14670495  0.70025746  0.39857417     0.16700
O1124       O  0.11160993  0.70202924  0.36314598    -0.60200
H1125       H  0.12120685  0.78839097  0.37403046     0.16700
O1126       O  0.15670794  0.78657685  0.40908397    -0.60300
H1127       H  0.14704532  0.79019027  0.42504928     0.43700
H1128       H  0.09527799  0.69871020  0.37225686     0.43700
C1129       C  0.96102878  0.74262350  0.27565543    -0.05400
C1130       C  0.97411043  0.72951208  0.29518808    -0.32800
C1131       C  0.99993354  0.73470387  0.30040346     0.36400
C1132       C  0.01291496  0.75384650  0.28652406    -0.05800
C1133       C  0.99968140  0.76735116  0.26735284    -0.32700
C1134       C  0.97408992  0.76151853  0.26152798     0.36300
H1135       H  0.96434315  0.71497472  0.30629246     0.16700
O1136       O  0.01229306  0.72092800  0.31910484    -0.60200
H1137       H  0.00942089  0.78197669  0.25634402     0.16700
O1138       O  0.96178132  0.77503264  0.24261168    -0.60300
H1139       H  0.96517800  0.76536094  0.22660334     0.43700
H1140       H  0.00950243  0.73071213  0.33515921     0.43700
C1141       C  0.73929934  0.15321540  0.65660933    -0.05400
C1142       C  0.71784303  0.13852305  0.66368429    -0.32800
C1143       C  0.71998433  0.11948415  0.68245579     0.36400
C1144       C  0.74392633  0.11455457  0.69390408    -0.05800
C1145       C  0.76587626  0.12664480  0.68414396    -0.32700
C1146       C  0.76368733  0.14608414  0.66581168     0.36300
H1147       H  0.69890820  0.14350514  0.65665324     0.16700
O1148       O  0.69826778  0.10741089  0.69096384    -0.60200
H1149       H  0.78450715  0.12300969  0.69266721     0.16700
O1150       O  0.78512249  0.15964750  0.65899506    -0.60300
H1151       H  0.79470354  0.14828033  0.64713685     0.43700
H1152       H  0.69870611  0.09020697  0.68291750     0.43700
C1153       C  0.64691761  0.86429961  0.79032152    -0.05400
C1154       C  0.63494347  0.85373479  0.81199088    -0.32800
C1155       C  0.61564173  0.83527691  0.80922645     0.36400
C1156       C  0.60789320  0.82748731  0.78456139    -0.05800
C1157       C  0.61710372  0.84097640  0.76317803    -0.32700
C1158       C  0.63660565  0.85916841  0.76591245     0.36300
H1159       H  0.64229876  0.85774204  0.83100621     0.16700
O1160       O  0.60625500  0.82329966  0.83061257    -0.60200
H1161       H  0.61119420  0.83553857  0.74401754     0.16700
O1162       O  0.64707246  0.86997270  0.74439478    -0.60300
H1163       H  0.63739008  0.88612777  0.74178473     0.43700
H1164       H  0.59137625  0.83384791  0.83604838     0.43700
C1165       C  0.72625056  0.83442189  0.86100159    -0.05400
C1166       C  0.70972718  0.81331636  0.85972743    -0.32800
C1167       C  0.71267628  0.79261133  0.87643281     0.36400
C1168       C  0.73278756  0.79260040  0.89453450    -0.05800
C1169       C  0.74822843  0.81459067  0.89690113    -0.32700
C1170       C  0.74489260  0.83553381  0.88042370     0.36300
H1171       H  0.69496933  0.81248876  0.84508717     0.16700
O1172       O  0.69637861  0.77213195  0.87420402    -0.60200
H1173       H  0.76375867  0.81508078  0.91071226     0.16700
O1174       O  0.76144044  0.85585548  0.88195674    -0.60300
H1175       H  0.75246786  0.86874155  0.89267743     0.43700
H1176       H  0.70304314  0.76195569  0.85959021     0.43700
C1177       C  0.73254736  0.96255457  0.79021908    -0.05400
C1178       C  0.71768708  0.97563143  0.77199327    -0.32800
C1179       C  0.72295307  0.00111439  0.76570829     0.36400
C1180       C  0.74368432  0.01392773  0.77744354    -0.05800
C1181       C  0.75887793  0.00065862  0.79532219    -0.32700
C1182       C  0.75341993  0.97521568  0.80179746     0.36300
H1183       H  0.70183740  0.96606828  0.76256084     0.16700
O1184       O  0.70812490  0.01303644  0.74752483    -0.60200
H1185       H  0.77484788  0.01014285  0.80461669     0.16700
O1186       O  0.76888593  0.96283345  0.81912653    -0.60300
H1187       H  0.78202858  0.95391733  0.80865359     0.43700
H1188       H  0.69284569  0.01942289  0.75688380     0.43700
C1189       C  0.64333683  0.23158109  0.90236608    -0.05400
C1190       C  0.63511434  0.25634082  0.89598804    -0.32800
C1191       C  0.61692609  0.26020354  0.87666087     0.36400
C1192       C  0.60717593  0.23905474  0.86291941    -0.05800
C1193       C  0.61300629  0.21423119  0.87144244    -0.32700
C1194       C  0.63064122  0.21037828  0.89136975     0.36300
H1195       H  0.64446553  0.27285211  0.90440100     0.16700
O1196       O  0.61166998  0.28480430  0.86907433    -0.60200
H1197       H  0.60549751  0.19774998  0.86129802     0.16700
O1198       O  0.63774802  0.18581630  0.89744426    -0.60300
H1199       H  0.62619157  0.18075219  0.91163272     0.43700
H1200       H  0.59595978  0.28970776  0.87859566     0.43700
C1201       C  0.71609148  0.15751730  0.87434588    -0.05400
C1202       C  0.73186800  0.13608694  0.87821498    -0.32800
C1203       C  0.73662922  0.11885250  0.85812895     0.36400
C1204       C  0.72508527  0.12271677  0.83389529    -0.05800
C1205       C  0.70720171  0.14262655  0.83103272    -0.32700
C1206       C  0.70299039  0.16019090  0.85082736     0.36300
H1207       H  0.74200085  0.13370529  0.89620632     0.16700
O1208       O  0.75393769  0.09940519  0.86193452    -0.60200
H1209       H  0.69782516  0.14580875  0.81275939     0.16700
O1210       O  0.68657041  0.18037411  0.84672523    -0.60300
H1211       H  0.69638306  0.19276405  0.83620256     0.43700
H1212       H  0.74355297  0.08465268  0.86781218     0.43700
C1213       C  0.73778414  0.32531919  0.15930047    -0.05400
C1214       C  0.71333933  0.33332608  0.16719193    -0.32800
C1215       C  0.71046524  0.35162197  0.18662640     0.36400
C1216       C  0.73228071  0.36163946  0.19915113    -0.05800
C1217       C  0.75670718  0.35520523  0.18988049    -0.32700
C1218       C  0.75955584  0.33765431  0.16969287     0.36300
H1219       H  0.69638835  0.32410667  0.15949783     0.16700
O1220       O  0.68624366  0.35711219  0.19530502    -0.60200
H1221       H  0.77367599  0.36271957  0.19922527     0.16700
O1222       O  0.78382215  0.33058297  0.16238250    -0.60300
H1223       H  0.78853139  0.34275696  0.14859946     0.43700
H1224       H  0.68117864  0.37303009  0.18624720     0.43700
C1225       C  0.72979010  0.23174969  0.00198666    -0.05400
C1226       C  0.71574770  0.25092592  0.01464361    -0.32800
C1227       C  0.72051284  0.25676308  0.04044301     0.36400
C1228       C  0.74011890  0.24386571  0.05390475    -0.05800
C1229       C  0.75475520  0.22527185  0.04100438    -0.32700
C1230       C  0.74964230  0.21907316  0.01532774     0.36300
H1231       H  0.70073118  0.26123185  0.00459687     0.16700
O1232       O  0.70641206  0.27567155  0.05208958    -0.60200
H1233       H  0.76988241  0.21510483  0.05102376     0.16700
O1234       O  0.76437812  0.20081786  0.00342586    -0.60300
H1235       H  0.77799099  0.21048907  0.99438822     0.43700
H1236       H  0.68983547  0.26755096  0.05657727     0.43700
C1237       C  0.15710776  0.24060055  0.66408186    -0.05400
C1238       C  0.14538393  0.26145466  0.67653268    -0.32800
C1239       C  0.12736297  0.25751670  0.69603556     0.36400
C1240       C  0.12036254  0.23241434  0.70298120    -0.05800
C1241       C  0.13042304  0.21171204  0.68893343    -0.32700
C1242       C  0.14898256  0.21563684  0.66992892     0.36300
H1243       H  0.15158334  0.28083139  0.67247706     0.16700
O1244       O  0.11783904  0.27827222  0.70907561    -0.60200
H1245       H  0.12526517  0.19224754  0.69388995     0.16700
O1246       O  0.15954123  0.19492884  0.65762584    -0.60300
H1247       H  0.17250671  0.18795417  0.66969569     0.43700
H1248       H  0.10062489  0.28142424  0.70158850     0.43700
C1249       C  0.85991127  0.32541292  0.78945235    -0.05400
C1250       C  0.84791313  0.33610526  0.81107018    -0.32800
C1251       C  0.82858058  0.35454422  0.80828090     0.36400
C1252       C  0.82175161  0.36324363  0.78365622    -0.05800
C1253       C  0.83627347  0.35506787  0.76245885    -0.32700
C1254       C  0.85496326  0.33596545  0.76516594     0.36300
H1255       H  0.85139155  0.32811944  0.82993037     0.16700
O1256       O  0.81483285  0.36194311  0.82942433    -0.60200
H1257       H  0.83132733  0.36144892  0.74331792     0.16700
O1258       O  0.86648649  0.32608042  0.74370668    -0.60300
H1259       H  0.88098842  0.33777051  0.74004015     0.43700
H1260       H  0.82342011  0.37767843  0.83567207     0.43700
C1261       C  0.81436559  0.14388393  0.76636910    -0.05400
C1262       C  0.83724639  0.14021175  0.78005290    -0.32800
C1263       C  0.85431527  0.16063297  0.78377276     0.36400
C1264       C  0.84864897  0.18504081  0.77349534    -0.05800
C1265       C  0.82709900  0.18784673  0.75763044    -0.32700
C1266       C  0.80996840  0.16759988  0.75414486     0.36300
H1267       H  0.84109039  0.12201894  0.78928061     0.16700
O1268       O  0.87563593  0.15687533  0.79874171    -0.60200
H1269       H  0.82248327  0.20630287  0.74931034     0.16700
O1270       O  0.78820961  0.17168118  0.73987601    -0.60300
H1271       H  0.79264478  0.16593937  0.72230912     0.43700
H1272       H  0.88980865  0.15361421  0.78649629     0.43700
C1273       C  0.82743623  0.25193724  0.86071549    -0.05400
C1274       C  0.80543414  0.26718361  0.85726456    -0.32800
C1275       C  0.78392463  0.26416625  0.87296131     0.36400
C1276       C  0.78407247  0.24535228  0.89230427    -0.05800
C1277       C  0.80683168  0.23154530  0.89697499    -0.32700
C1278       C  0.82844923  0.23481245  0.88145360     0.36300
H1279       H  0.80447438  0.28074633  0.84157025     0.16700
O1280       O  0.76230384  0.27829335  0.86784930    -0.60200
H1281       H  0.80748660  0.21711872  0.91187727     0.16700
O1282       O  0.84945929  0.21941851  0.88524531    -0.60300
H1283       H  0.86024853  0.22872701  0.89782414     0.43700
H1284       H  0.76351638  0.29348158  0.87920153     0.43700
C1285       C  0.95833283  0.24040498  0.79281178    -0.05400
C1286       C  0.96969091  0.24787209  0.76958780    -0.32800
C1287       C  0.99526578  0.24179693  0.76419259     0.36400
C1288       C  0.00980908  0.22754199  0.78186395    -0.05800
C1289       C  0.99851415  0.21987681  0.80502557    -0.32700
C1290       C  0.97304499  0.22641991  0.81070059     0.36300
H1291       H  0.95867894  0.25840181  0.75544617     0.16700
O1292       O  0.00553796  0.24889337  0.74108642    -0.60200
H1293       H  0.00961826  0.20916950  0.81896493     0.16700
O1294       O  0.96272331  0.21884686  0.83363839    -0.60300
H1295       H  0.95605279  0.20134356  0.83053594     0.43700
H1296       H  0.01159458  0.26670488  0.74361982     0.43700
C1297       C  0.31702248  0.24435852  0.16493022    -0.05400
C1298       C  0.33162721  0.22311111  0.17290060    -0.32800
C1299       C  0.34982054  0.22546860  0.19255030     0.36400
C1300       C  0.35455885  0.24955358  0.20358621    -0.05800
C1301       C  0.34173857  0.27118596  0.19389175    -0.32700
C1302       C  0.32273018  0.26867935  0.17506903     0.36300
H1303       H  0.32738459  0.20417965  0.16552870     0.16700
O1304       O  0.36215547  0.20401982  0.20149119    -0.60200
H1305       H  0.34477796  0.28981318  0.20254928     0.16700
O1306       O  0.30852496  0.28974729  0.16822098    -0.60300
H1307       H  0.31941413  0.29930127  0.15596345     0.43700
H1308       H  0.34964728  0.19549910  0.21296054     0.43700
C1309       C  0.23349393  0.32863357  0.90159088    -0.05400
C1310       C  0.25757977  0.33855672  0.89510468    -0.32800
C1311       C  0.25974096  0.35795040  0.87672626     0.36400
C1312       C  0.23765120  0.36676161  0.86371814    -0.05800
C1313       C  0.21344940  0.35880396  0.87218922    -0.32700
C1314       C  0.21122115  0.34009106  0.89122480     0.36300
H1315       H  0.27485638  0.33011390  0.90304771     0.16700
O1316       O  0.28374013  0.36582166  0.86950818    -0.60200
H1317       H  0.19625888  0.36561744  0.86265364     0.16700
O1318       O  0.18724895  0.33132886  0.89756089    -0.60300
H1319       H  0.18313051  0.31808747  0.88455237     0.43700
H1320       H  0.28696818  0.38160663  0.87956969     0.43700
C1321       C  0.16577326  0.25267225  0.87160907    -0.05400
C1322       C  0.17309014  0.25738762  0.84613088    -0.32800
C1323       C  0.15594494  0.25369689  0.82585600     0.36400
C1324       C  0.13086974  0.24491369  0.83074415    -0.05800
C1325       C  0.12307610  0.24153686  0.85632193    -0.32700
C1326       C  0.14023609  0.24551536  0.87667566     0.36300
H1327       H  0.19251460  0.26326894  0.84173692     0.16700
O1328       O  0.16451141  0.25723821  0.80126941    -0.60200
H1329       H  0.10390518  0.23480123  0.86056948     0.16700
O1330       O  0.13223434  0.24082772  0.90124105    -0.60300
H1331       H  0.12444355  0.25714352  0.90712932     0.43700
H1332       H  0.16058073  0.27538321  0.79722604     0.43700
C1333       C  0.23247356  0.24999617  0.00461108    -0.05400
C1334       C  0.21681419  0.23236692  0.01741562    -0.32800
C1335       C  0.22135194  0.22613205  0.04306878     0.36400
C1336       C  0.24129815  0.23819832  0.05662907    -0.05800
C1337       C  0.25663986  0.25633175  0.04407286    -0.32700
C1338       C  0.25258665  0.26201385  0.01811344     0.36300
H1339       H  0.20135795  0.22284491  0.00731495     0.16700
O1340       O  0.20545446  0.20902008  0.05503886    -0.60200
H1341       H  0.27196268  0.26588877  0.05434245     0.16700
O1342       O  0.26832227  0.27931692  0.00618806    -0.60300
H1343       H  0.26007390  0.29622855  0.00893718     0.43700
H1344       H  0.21250619  0.19188808  0.05077093     0.43700
C1345       C  0.64801178  0.11893071  0.27957112    -0.05400
C1346       C  0.64222483  0.12652199  0.30469621    -0.32800
C1347       C  0.62403757  0.14572120  0.30934871     0.36400
C1348       C  0.61157546  0.15784890  0.28858462    -0.05800
C1349       C  0.61537212  0.14832475  0.26375020    -0.32700
C1350       C  0.63318119  0.12876832  0.25915570     0.36300
H1351       H  0.65336091  0.11914611  0.32063235     0.16700
O1352       O  0.62124431  0.15475694  0.33387853    -0.60200
H1353       H  0.60590502  0.15735072  0.24759728     0.16700
O1354       O  0.63817096  0.12186398  0.23429187    -0.60300
H1355       H  0.62649521  0.10731844  0.23075030     0.43700
H1356       H  0.60904755  0.14283862  0.34219668     0.43700
C1357       C  0.72346258  0.18623614  0.16504198    -0.05400
C1358       C  0.73671022  0.16305257  0.16099583    -0.32800
C1359       C  0.73416665  0.14251929  0.17814742     0.36400
C1360       C  0.71839243  0.14512325  0.19983952    -0.05800
C1361       C  0.70355371  0.16743421  0.20267253    -0.32700
C1362       C  0.70557074  0.18766079  0.18522739     0.36300
H1363       H  0.75022980  0.16132425  0.14533572     0.16700
O1364       O  0.74846087  0.12074502  0.17444848    -0.60200
H1365       H  0.69090651  0.16956112  0.21901371     0.16700
O1366       O  0.69137869  0.20942443  0.18931739    -0.60300
H1367       H  0.67531525  0.20682863  0.17945304     0.43700
H1368       H  0.76556320  0.12460159  0.18184366     0.43700
C1369       C  0.73385686  0.82417890  0.40158881    -0.05400
C1370       C  0.71258160  0.83882389  0.39366533    -0.32800
C1371       C  0.71522870  0.85783751  0.37488685     0.36400
C1372       C  0.73948413  0.86279905  0.36427520    -0.05800
C1373       C  0.76113133  0.85039421  0.37450371    -0.32700
C1374       C  0.75844307  0.83100877  0.39281671     0.36300
H1375       H  0.69348618  0.83398383  0.40022750     0.16700
O1376       O  0.69380060  0.87002605  0.36562479    -0.60200
H1377       H  0.77997326  0.85393601  0.36650466     0.16700
O1378       O  0.77972061  0.81746882  0.40035687    -0.60300
H1379       H  0.78668066  0.82703475  0.41523146     0.43700
H1380       H  0.68921289  0.88284745  0.37888895     0.43700
C1381       C  0.71990799  0.82570739  0.18055837    -0.05400
C1382       C  0.70249112  0.82530258  0.20108105    -0.32800
C1383       C  0.70562643  0.84156494  0.22213839     0.36400
C1384       C  0.72674383  0.85831606  0.22309157    -0.05800
C1385       C  0.74247971  0.86065651  0.20130234    -0.32700
C1386       C  0.73919676  0.84447001  0.18012115     0.36300
H1387       H  0.68727894  0.81119700  0.20154127     0.16700
O1388       O  0.68918310  0.83933350  0.24250259    -0.60200
H1389       H  0.75855979  0.87376568  0.20137341     0.16700
O1390       O  0.75632541  0.84565499  0.16022646    -0.60300
H1391       H  0.77058949  0.83404082  0.16515320     0.43700
H1392       H  0.67533932  0.85195156  0.23913482     0.43700
C1393       C  0.81725923  0.84169061  0.29372888    -0.05400
C1394       C  0.81902522  0.82307914  0.31305538    -0.32800
C1395       C  0.83684046  0.80301428  0.31123652     0.36400
C1396       C  0.85272556  0.80107356  0.28947927    -0.05800
C1397       C  0.85239112  0.82103394  0.27134441    -0.32700
C1398       C  0.83485047  0.84126763  0.27340094     0.36300
H1399       H  0.80581201  0.82351127  0.32907552     0.16700
O1400       O  0.83790307  0.78497592  0.33032149    -0.60200
H1401       H  0.86446476  0.82006657  0.25448636     0.16700
O1402       O  0.83312416  0.85884619  0.25395731    -0.60300
H1403       H  0.84562763  0.87240315  0.25847659     0.43700
H1404       H  0.82314520  0.77344675  0.32712943     0.43700
C1405       C  0.73879211  0.96511295  0.28223356    -0.05400
C1406       C  0.74799536  0.97653492  0.25975282    -0.32800
C1407       C  0.74190673  0.00197727  0.25385030     0.36400
C1408       C  0.72735470  0.01679450  0.27115504    -0.05800
C1409       C  0.71789536  0.00520741  0.29353458    -0.32700
C1410       C  0.72296314  0.97937252  0.29878273     0.36300
H1411       H  0.75951146  0.96550524  0.24642714     0.16700
O1412       O  0.75042665  0.01214898  0.23118842    -0.60200
H1413       H  0.70648479  0.01618475  0.30698669     0.16700
O1414       O  0.71318418  0.96851548  0.32060512    -0.60300
H1415       H  0.69554730  0.96311166  0.31596663     0.43700
H1416       H  0.76724807  0.01999714  0.23527502     0.43700
C1417       C  0.85778107  0.23152669  0.36240893    -0.05400
C1418       C  0.85515534  0.25551294  0.37418862    -0.32800
C1419       C  0.83785469  0.25899674  0.39442140     0.36400
C1420       C  0.82195084  0.23856842  0.40217011    -0.05800
C1421       C  0.82641291  0.21407715  0.39202473    -0.32700
C1422       C  0.84449107  0.21036309  0.37259118     0.36300
H1423       H  0.86542011  0.27190459  0.36671505     0.16700
O1424       O  0.83467795  0.28308559  0.40440844    -0.60200
H1425       H  0.81452390  0.19809142  0.39778835     0.16700
O1426       O  0.84651240  0.18662415  0.36148638    -0.60300
H1427       H  0.85875320  0.17703713  0.37245547     0.43700
H1428       H  0.84636702  0.28376726  0.41940364     0.43700
C1429       C  0.84924816  0.24968644  0.22162623    -0.05400
C1430       C  0.85246388  0.23558454  0.19882817    -0.32800
C1431       C  0.83510551  0.23815231  0.17841107     0.36400
C1432       C  0.81384251  0.25456438  0.18087400    -0.05800
C1433       C  0.81192420  0.27029024  0.20265348    -0.32700
C1434       C  0.82966454  0.26830798  0.22272116     0.36300
H1435       H  0.86755474  0.22135662  0.19737672     0.16700
O1436       O  0.83768874  0.22270222  0.15731195    -0.60200
H1437       H  0.79596784  0.28350082  0.20458722     0.16700
O1438       O  0.82633340  0.28319419  0.24412465    -0.60300
H1439       H  0.83608626  0.29909908  0.24064626     0.43700
H1440       H  0.85043263  0.23144063  0.14628841     0.43700
C1441       C  0.82959512  0.16129186  0.28864123    -0.05400
C1442       C  0.80824367  0.16424674  0.30470995    -0.32800
C1443       C  0.78761705  0.14730501  0.30339757     0.36400
C1444       C  0.78787530  0.12720264  0.28535825    -0.05800
C1445       C  0.81004621  0.12327791  0.27044901    -0.32700
C1446       C  0.83090561  0.14010378  0.27209397     0.36300
H1447       H  0.80713205  0.18036482  0.31777387     0.16700
O1448       O  0.76657486  0.15180502  0.31850629    -0.60200
H1449       H  0.81066539  0.10801977  0.25638291     0.16700
O1450       O  0.85124689  0.13711519  0.25571053    -0.60300
H1451       H  0.86200719  0.12349198  0.26348660     0.43700
H1452       H  0.77023177  0.14279735  0.33483750     0.43700
C1453       C  0.14535941  0.36162043  0.28216388    -0.05400
C1454       C  0.13190256  0.35167940  0.30326127    -0.32800
C1455       C  0.11403339  0.33197418  0.29992475     0.36400
C1456       C  0.10904456  0.32244031  0.27521674    -0.05800
C1457       C  0.11979643  0.33485900  0.25393476    -0.32700
C1458       C  0.13803036  0.35418947  0.25726596     0.36300
H1459       H  0.13710216  0.35723774  0.32259088     0.16700
O1460       O  0.10323575  0.32072425  0.32104192    -0.60200
H1461       H  0.11610130  0.32782070  0.23473946     0.16700
O1462       O  0.15034553  0.36382361  0.23617467    -0.60300
H1463       H  0.14092479  0.37976139  0.23182680     0.43700
H1464       H  0.08743992  0.33076860  0.32446423     0.43700
C1465       C  0.13494373  0.25253062  0.19596892    -0.05400
C1466       C  0.13464816  0.23299552  0.17758203    -0.32800
C1467       C  0.15547265  0.22972811  0.16093136     0.36400
C1468       C  0.17686329  0.24626594  0.16260254    -0.05800
C1469       C  0.17568032  0.26741191  0.17917822    -0.32700
C1470       C  0.15501086  0.27049661  0.19591282     0.36300
H1471       H  0.11927281  0.21906086  0.17747099     0.16700
O1472       O  0.15551933  0.20915224  0.14459117    -0.60200
H1473       H  0.19157190  0.28069373  0.18043224     0.16700
O1474       O  0.15491063  0.29070865  0.21275577    -0.60300
H1475       H  0.16647229  0.28553151  0.22696021     0.43700
H1476       H  0.14979239  0.21609900  0.12784586     0.43700
C1477       C  0.01129834  0.23791529  0.27175728    -0.05400
C1478       C  0.99891316  0.25107149  0.29168602    -0.32800
C1479       C  0.97272240  0.24747220  0.29624449     0.36400
C1480       C  0.95882925  0.22963312  0.28149862    -0.05800
C1481       C  0.97141945  0.21591177  0.26210685    -0.32700
C1482       C  0.99731714  0.22032659  0.25682103     0.36300
H1483       H  0.00942717  0.26462531  0.30338910     0.16700
O1484       O  0.96104302  0.26105350  0.31549729    -0.60200
H1485       H  0.96095752  0.20226408  0.25046782     0.16700
O1486       O  0.00892928  0.20683312  0.23746989    -0.60300
H1487       H  0.00539410  0.21679357  0.22167204     0.43700
H1488       H  0.95643084  0.27777912  0.30772826     0.43700
C1489       C  0.23686705  0.86751585  0.69998228    -0.05400
C1490       C  0.26174399  0.86087119  0.69211231    -0.32800
C1491       C  0.26562814  0.84261301  0.67277182     0.36400
C1492       C  0.24438976  0.83010028  0.66156656    -0.05800
C1493       C  0.21959244  0.83863613  0.66766979    -0.32700
C1494       C  0.21572893  0.85745905  0.68641522     0.36300
H1495       H  0.27822806  0.86845966  0.70223770     0.16700
O1496       O  0.29021432  0.83500345  0.66729572    -0.60200
H1497       H  0.20302261  0.82937806  0.65922880     0.16700
O1498       O  0.19109535  0.86332877  0.69356272    -0.60300
H1499       H  0.18557892  0.87707911  0.68165983     0.43700
H1500       H  0.29595000  0.84657439  0.65338866     0.43700
C1501       C  0.29655686  0.14677728  0.78304068    -0.05400
C1502       C  0.28759325  0.17186981  0.77925270    -0.32800
C1503       C  0.30454893  0.19189047  0.77418837     0.36400
C1504       C  0.33111868  0.18702084  0.77241965    -0.05800
C1505       C  0.34005370  0.16179833  0.77553588    -0.32700
C1506       C  0.32304353  0.14177736  0.78093599     0.36300
H1507       H  0.26732681  0.17622800  0.78091173     0.16700
O1508       O  0.29479767  0.21608118  0.77081616    -0.60200
H1509       H  0.36031852  0.15750829  0.77375513     0.16700
O1510       O  0.33247891  0.11738534  0.78364082    -0.60300
H1511       H  0.33935717  0.11659449  0.80135400     0.43700
H1512       H  0.29411319  0.22364752  0.78824259     0.43700
C1513       C  0.12714401  0.14591214  0.77837365    -0.05400
C1514       C  0.12985916  0.13334630  0.80192080    -0.32800
C1515       C  0.15202681  0.11928212  0.80750548     0.36400
C1516       C  0.17199871  0.11760794  0.78930364    -0.05800
C1517       C  0.16818918  0.12829693  0.76487383    -0.32700
C1518       C  0.14585889  0.14222002  0.75925881     0.36300
H1519       H  0.11563123  0.13608152  0.81680871     0.16700
O1520       O  0.15466621  0.10886430  0.83149612    -0.60200
H1521       H  0.18321973  0.12724561  0.75058844     0.16700
O1522       O  0.14410121  0.15480183  0.73624568    -0.60300
H1523       H  0.13618201  0.14231700  0.72431702     0.43700
H1524       H  0.16075321  0.12309329  0.84253729     0.43700
C1525       C  0.25342561  0.13674256  0.88000779    -0.05400
C1526       C  0.27257652  0.15558445  0.87845575    -0.32800
C1527       C  0.26986198  0.17893929  0.89154726     0.36400
C1528       C  0.24811088  0.18328638  0.90701734    -0.05800
C1529       C  0.23093964  0.16297112  0.91118313    -0.32700
C1530       C  0.23334925  0.13996221  0.89768838     0.36300
H1531       H  0.28820308  0.15342399  0.86494047     0.16700
O1532       O  0.28752329  0.19794219  0.88752208    -0.60200
H1533       H  0.21433967  0.16557661  0.92339177     0.16700
O1534       O  0.21461352  0.12172393  0.90010018    -0.60300
H1535       H  0.21971150  0.11140792  0.91522853     0.43700
H1536       H  0.28185647  0.20670957  0.87162258     0.43700
C1537       C  0.23322532  0.96643889  0.78668180    -0.05400
C1538       C  0.25371951  0.97942661  0.77504536    -0.32800
C1539       C  0.25883431  0.00512386  0.78105621     0.36400
C1540       C  0.24393227  0.01786001  0.79964139    -0.05800
C1541       C  0.22403568  0.00455211  0.81184906    -0.32700
C1542       C  0.21847240  0.97918395  0.80534590     0.36300
H1543       H  0.26554051  0.96975262  0.76096255     0.16700
O1544       O  0.27882041  0.01736417  0.76920801    -0.60200
H1545       H  0.21221994  0.01410239  0.82602411     0.16700
O1546       O  0.19872307  0.96695911  0.81759952    -0.60300
H1547       H  0.20693241  0.95722290  0.83173164     0.43700
H1548       H  0.27186756  0.02317615  0.75248854     0.43700
C1549       C  0.10545322  0.65765956  0.78264959    -0.05400
C1550       C  0.11527817  0.64405942  0.80372624    -0.32800
C1551       C  0.13455645  0.62568104  0.80033171     0.36400
C1552       C  0.14358247  0.62016931  0.77552985    -0.05800
C1553       C  0.13101169  0.63104207  0.75430292    -0.32700
C1554       C  0.11218587  0.64985890  0.75772729     0.36300
H1555       H  0.11026642  0.64970841  0.82307459     0.16700
O1556       O  0.14613322  0.61512610  0.82146043    -0.60200
H1557       H  0.13759127  0.62695761  0.73503352     0.16700
O1558       O  0.10250732  0.66231579  0.73668382    -0.60300
H1559       H  0.08621570  0.65340331  0.73265515     0.43700
H1560       H  0.13470237  0.60094481  0.82677648     0.43700
C1561       C  0.12697395  0.79591782  0.77670459    -0.05400
C1562       C  0.12175636  0.81950197  0.78873015    -0.32800
C1563       C  0.13877461  0.84015742  0.78661320     0.36400
C1564       C  0.16138444  0.83746398  0.77216958    -0.05800
C1565       C  0.16595347  0.81433387  0.75914993    -0.32700
C1566       C  0.14911909  0.79365689  0.76139120     0.36300
H1567       H  0.10502739  0.82160827  0.80085516     0.16700
O1568       O  0.13421790  0.86198410  0.80051714    -0.60200
H1569       H  0.18323066  0.81189452  0.74786346     0.16700
O1570       O  0.15516426  0.77103929  0.74940928    -0.60300
H1571       H  0.16725507  0.76219630  0.76116471     0.43700
H1572       H  0.12215302  0.87220662  0.78993894     0.43700
C1573       C  0.85679204  0.74728334  0.69367658    -0.05400
C1574       C  0.84564215  0.76868858  0.68165717    -0.32800
C1575       C  0.82591968  0.76564945  0.66367352     0.36400
C1576       C  0.81745961  0.74093799  0.65711114    -0.05800
C1577       C  0.83099741  0.71959485  0.66651307    -0.32700
C1578       C  0.85026419  0.72260943  0.68503576     0.36300
H1579       H  0.85039222  0.78786767  0.68800742     0.16700
O1580       O  0.81369137  0.78692366  0.65422095    -0.60200
H1581       H  0.82493037  0.70039153  0.66151578     0.16700
O1582       O  0.86158877  0.70132466  0.69557819    -0.60300
H1583       H  0.84887643  0.69448086  0.70791939     0.43700
H1584       H  0.82335776  0.79158122  0.63855570     0.43700
C1585       C  0.84892594  0.73605293  0.83298313    -0.05400
C1586       C  0.82949694  0.71764305  0.83087781    -0.32800
C1587       C  0.81288908  0.71290156  0.85133523     0.36400
C1588       C  0.81587313  0.72626187  0.87467775    -0.05800
C1589       C  0.83656049  0.74314949  0.87750327    -0.32700
C1590       C  0.85297795  0.74818191  0.85685389     0.36300
H1591       H  0.82615922  0.70789502  0.81284322     0.16700
O1592       O  0.79346527  0.69547943  0.84812836    -0.60200
H1593       H  0.83914679  0.75359172  0.89526612     0.16700
O1594       O  0.87204058  0.76598630  0.85988074    -0.60300
H1595       H  0.88735759  0.75603976  0.86525256     0.43700
H1596       H  0.77985455  0.70474651  0.83856146     0.43700
C1597       C  0.82862174  0.82243167  0.76063922    -0.05400
C1598       C  0.83240055  0.84642237  0.77206197    -0.32800
C1599       C  0.81166966  0.86324877  0.77537025     0.36400
C1600       C  0.78690061  0.85611937  0.76692119    -0.05800
C1601       C  0.78401781  0.83359487  0.75262266    -0.32700
C1602       C  0.80455062  0.81668954  0.74965208     0.36300
H1603       H  0.85087982  0.85127008  0.78024453     0.16700
O1604       O  0.81545681  0.88551911  0.78879342    -0.60200
H1605       H  0.76528966  0.82789918  0.74564052     0.16700
O1606       O  0.80030859  0.79368119  0.73766485    -0.60300
H1607       H  0.80610250  0.79621287  0.71975778     0.43700
H1608       H  0.81529659  0.89929129  0.77571304     0.43700
C1609       C  0.01095703  0.74393008  0.78765913    -0.05400
C1610       C  0.99716567  0.76100105  0.80323470    -0.32800
C1611       C  0.97132371  0.76645892  0.79810606     0.36400
C1612       C  0.95866977  0.75404169  0.77771233    -0.05800
C1613       C  0.97237687  0.73664473  0.76244553    -0.32700
C1614       C  0.99838903  0.73186888  0.76700078     0.36300
H1615       H  0.00656754  0.77050245  0.81913623     0.16700
O1616       O  0.95839025  0.78318372  0.81374081    -0.60200
H1617       H  0.96294799  0.72691603  0.74669647     0.16700
O1618       O  0.01128962  0.71529192  0.75116285    -0.60300
H1619       H  0.01106960  0.69856879  0.76015753     0.43700
H1620       H  0.96109433  0.80031125  0.80601306     0.43700
C1621       C  0.23041173  0.65080673  0.15806447    -0.05400
C1622       C  0.20889400  0.63856875  0.16860965    -0.32800
C1623       C  0.21183595  0.61990478  0.18763288     0.36400
C1624       C  0.23655673  0.61290433  0.19598437    -0.05800
C1625       C  0.25797250  0.62218761  0.18256752    -0.32700
C1626       C  0.25505567  0.64134921  0.16393574     0.36300
H1627       H  0.18973261  0.64533024  0.16413529     0.16700
O1628       O  0.19045282  0.61039120  0.19953770    -0.60200
H1629       H  0.27716982  0.61668307  0.18840027     0.16700
O1630       O  0.27641649  0.65170891  0.15266595    -0.60300
H1631       H  0.28374727  0.66351569  0.16563609     0.43700
H1632       H  0.18753004  0.59340018  0.19156593     0.43700
C1633       C  0.12002054  0.73695915  0.22581948    -0.05400
C1634       C  0.13686497  0.71597485  0.22685225    -0.32800
C1635       C  0.15349366  0.71071950  0.20652085     0.36400
C1636       C  0.15337430  0.72642579  0.18459705    -0.05800
C1637       C  0.13467343  0.74561636  0.18227666    -0.32700
C1638       C  0.11804201  0.75100029  0.20272223     0.36300
H1639       H  0.13839120  0.70455578  0.24411867     0.16700
O1640       O  0.17092088  0.69113038  0.20891765    -0.60200
H1641       H  0.13423306  0.75772224  0.16542112     0.16700
O1642       O  0.10136004  0.77123094  0.20056109    -0.60300
H1643       H  0.08532088  0.76376226  0.19360404     0.43700
H1644       H  0.16175808  0.67560153  0.20295372     0.43700
C1645       C  0.31916766  0.73915308  0.90618184    -0.05400
C1646       C  0.32726439  0.71410581  0.90075845    -0.32800
C1647       C  0.34697253  0.70959255  0.88311307     0.36400
C1648       C  0.35796018  0.73031577  0.86972121    -0.05800
C1649       C  0.35184294  0.75538072  0.87725937    -0.32700
C1650       C  0.33291452  0.75990152  0.89571771     0.36300
H1651       H  0.31710302  0.69794663  0.90885722     0.16700
O1652       O  0.35285569  0.68478494  0.87673682    -0.60200
H1653       H  0.36025543  0.77154099  0.86735366     0.16700
O1654       O  0.32577030  0.78468779  0.90076091    -0.60300
H1655       H  0.33558812  0.78957206  0.91629341     0.43700
H1656       H  0.36845841  0.68063077  0.88682055     0.43700
C1657       C  0.13558101  0.72736064  0.86371833    -0.05400
C1658       C  0.15593941  0.70972635  0.86300626    -0.32800
C1659       C  0.17654346  0.71172938  0.88004610     0.36400
C1660       C  0.17727240  0.73198441  0.89789579    -0.05800
C1661       C  0.15585850  0.74834111  0.89996513    -0.32700
C1662       C  0.13506427  0.74609166  0.88307023     0.36300
H1663       H  0.15648118  0.69504377  0.84831839     0.16700
O1664       O  0.19674075  0.69502869  0.87760161    -0.60200
H1665       H  0.15593810  0.76402525  0.91356829     0.16700
O1666       O  0.11581918  0.76402215  0.88385433    -0.60300
H1667       H  0.10291799  0.75694612  0.89584754     0.43700
H1668       H  0.19374726  0.68165855  0.89074196     0.43700
C1669       C  0.24808595  0.81692515  0.87875020    -0.05400
C1670       C  0.23352619  0.83917968  0.88274335    -0.32800
C1671       C  0.23109855  0.85756041  0.86327203     0.36400
C1672       C  0.24408639  0.85414509  0.83975776    -0.05800
C1673       C  0.26025462  0.83286545  0.83672525    -0.32700
C1674       C  0.26202405  0.81419551  0.85575907     0.36300
H1675       H  0.22276860  0.84159177  0.90033632     0.16700
O1676       O  0.21537760  0.87831295  0.86713838    -0.60200
H1677       H  0.27028792  0.82972698  0.81881796     0.16700
O1678       O  0.27651125  0.79272177  0.85110441    -0.60300
H1679       H  0.29291344  0.79562174  0.86027909     0.43700
H1680       H  0.19775602  0.87201964  0.86373434     0.43700
C1681       C  0.23724995  0.74405587  0.00631979    -0.05400
C1682       C  0.21923478  0.75901281  0.01955542    -0.32800
C1683       C  0.21350362  0.75396441  0.04525356     0.36400
C1684       C  0.22633230  0.73407268  0.05828865    -0.05800
C1685       C  0.24472146  0.71941352  0.04516750    -0.32700
C1686       C  0.25007938  0.72414339  0.01932590     0.36300
H1687       H  0.20920801  0.77439387  0.00981472     0.16700
O1688       O  0.19619912  0.76933979  0.05775310    -0.60200
H1689       H  0.25494046  0.70419601  0.05496758     0.16700
O1690       O  0.26811999  0.70941069  0.00708357    -0.60300
H1691       H  0.28429268  0.71931971  0.00824045     0.43700
H1692       H  0.17913500  0.76202283  0.05367102     0.43700
C1693       C  0.23103954  0.11351390  0.36223424    -0.05400
C1694       C  0.25517982  0.11819837  0.37312161    -0.32800
C1695       C  0.25795589  0.13597010  0.39304923     0.36400
C1696       C  0.23645813  0.15005474  0.40163943    -0.05800
C1697       C  0.21203280  0.14341147  0.39254598    -0.32700
C1698       C  0.20914767  0.12499454  0.37327377     0.36300
H1699       H  0.27216825  0.10941937  0.36496442     0.16700
O1700       O  0.28215909  0.14162582  0.40164250    -0.60200
H1701       H  0.19528014  0.15394058  0.39894310     0.16700
O1702       O  0.18520623  0.12099591  0.36309665    -0.60300
H1703       H  0.17683008  0.10869530  0.37486939     0.43700
H1704       H  0.28500931  0.13008683  0.41646307     0.43700
C1705       C  0.24860568  0.12602845  0.22168202    -0.05400
C1706       C  0.26489944  0.14719138  0.22454396    -0.32800
C1707       C  0.26738453  0.16520454  0.20487184     0.36400
C1708       C  0.25374079  0.16206029  0.18174915    -0.05800
C1709       C  0.23979187  0.13951671  0.17771897    -0.32700
C1710       C  0.23712360  0.12153547  0.19751760     0.36300
H1711       H  0.27437852  0.15079878  0.24267901     0.16700
O1712       O  0.28275323  0.18620506  0.20860623    -0.60200
H1713       H  0.22946405  0.13669298  0.15990705     0.16700
O1714       O  0.22189430  0.10053163  0.19353294    -0.60300
H1715       H  0.23374712  0.08691437  0.18753825     0.43700
H1716       H  0.27258495  0.19805196  0.21946996     0.43700
C1717       C  0.12457802  0.18242281  0.28319999    -0.05400
C1718       C  0.12144560  0.15992593  0.26862622    -0.32800
C1719       C  0.13876513  0.13946243  0.27090452     0.36400
C1720       C  0.15959699  0.14133724  0.28793879    -0.05800
C1721       C  0.16166110  0.16299205  0.30377628    -0.32700
C1722       C  0.14448149  0.18345328  0.30148030     0.36300
H1723       H  0.10636249  0.15871594  0.25437216     0.16700
O1724       O  0.13651946  0.11890054  0.25470621    -0.60200
H1725       H  0.17742939  0.16460461  0.31724737     0.16700
O1726       O  0.14822908  0.20485805  0.31626878    -0.60300
H1727       H  0.16109545  0.21520525  0.30688673     0.43700
H1728       H  0.12569974  0.10642293  0.26404394     0.43700
C1729       C  0.32659923  0.85803311  0.27689220    -0.05400
C1730       C  0.33484713  0.85214275  0.30179711    -0.32800
C1731       C  0.35304478  0.83280575  0.30600935     0.36400
C1732       C  0.36268043  0.81858681  0.28508235    -0.05800
C1733       C  0.35639375  0.82629409  0.26011926    -0.32700
C1734       C  0.33871700  0.84603923  0.25589311     0.36300
H1735       H  0.32575576  0.86119063  0.31813825     0.16700
O1736       O  0.35869806  0.82589812  0.33074073    -0.60200
H1737       H  0.36366576  0.81567185  0.24381475     0.16700
O1738       O  0.33091979  0.85094388  0.23126391    -0.60300
H1739       H  0.34313941  0.86390074  0.22472235     0.43700
H1740       H  0.37255989  0.83769277  0.33617630     0.43700
C1741       C  0.18518905  0.85652967  0.28848350    -0.05400
C1742       C  0.16297155  0.86029469  0.27353071    -0.32800
C1743       C  0.14110449  0.84517560  0.27724123     0.36400
C1744       C  0.14152405  0.82560827  0.29568952    -0.05800
C1745       C  0.16269848  0.82346619  0.31220418    -0.32700
C1746       C  0.18432341  0.83894547  0.30894294     0.36300
H1747       H  0.16302648  0.87396006  0.25791672     0.16700
O1748       O  0.12059448  0.84787770  0.26097654    -0.60200
H1749       H  0.16300946  0.80878844  0.32688865     0.16700
O1750       O  0.20492531  0.83575802  0.32503404    -0.60300
H1751       H  0.21427199  0.82059390  0.31836379     0.43700
H1752       H  0.10895849  0.86016983  0.26965000     0.43700
C1753       C  0.25542295  0.83176584  0.20172581    -0.05400
C1754       C  0.24123659  0.83571985  0.17920910    -0.32800
C1755       C  0.23659663  0.81533518  0.16224905     0.36400
C1756       C  0.24662765  0.79072546  0.16757763    -0.05800
C1757       C  0.26309156  0.78766905  0.18863615    -0.32700
C1758       C  0.26741675  0.80784128  0.20567995     0.36300
H1759       H  0.23228064  0.85411783  0.17561137     0.16700
O1760       O  0.22158828  0.81949146  0.14102814    -0.60200
H1761       H  0.27132369  0.76909096  0.19295679     0.16700
O1762       O  0.28226983  0.80347872  0.22696870    -0.60300
H1763       H  0.29992621  0.80822563  0.22181140     0.43700
H1764       H  0.20366603  0.81937751  0.14738985     0.43700
C1765       C  0.24611264  0.96196049  0.27084860    -0.05400
C1766       C  0.22626840  0.97406230  0.25726687    -0.32800
C1767       C  0.22015615  0.99977920  0.26182813     0.36400
C1768       C  0.23450796  0.01412034  0.27963706    -0.05800
C1769       C  0.25467124  0.00213002  0.29296561    -0.32700
C1770       C  0.26032480  0.97616788  0.28890343     0.36300
H1771       H  0.21504198  0.96337786  0.24343611     0.16700
O1772       O  0.20075697  0.01097585  0.24800111    -0.60200
H1773       H  0.26596953  0.01287163  0.30669226     0.16700
O1774       O  0.27990004  0.96495312  0.30248687    -0.60300
H1775       H  0.29547348  0.96756582  0.29191774     0.43700
H1776       H  0.18485074  0.00708530  0.25763439     0.43700
loop_ 
_geom_bond_atom_site_label_1 
_geom_bond_atom_site_label_2 
_geom_bond_distance 
_geom_bond_site_symmetry_2 
_ccdc_geom_bond_type 
In1           O3   2.233       .  S
In1           O4   2.234       .  S
In1          O12   2.240       .  S
In1           O6   2.245       .  S
In1           O8   2.270       .  S
In1           O9   2.252       .  S
In1          O10   2.211       .  S
In1          O13   2.234       .  S
C2            O8   1.269       .  A
C2           O10   1.260       .  A
C2         C1753   1.479       .  S
O3           C11   1.264       .  A
O4           C11   1.266       .  A
C5           O12   1.261       .  A
C5            O6   1.264       .  A
C5         C1765   1.477       .  S
C7            O9   1.264       .  A
C7           O13   1.259       .  A
C7         C1741   1.482       .  S
C11        C1729   1.476       .  S
In14         O16   2.231       .  S
In14         O17   2.238       .  S
In14         O25   2.241       .  S
In14         O19   2.244       .  S
In14         O21   2.266       .  S
In14         O22   2.256       .  S
In14         O23   2.208       .  S
In14         O26   2.239       .  S
C15          O21   1.269       .  A
C15          O23   1.260       .  A
C15        C1720   1.476       .  S
O16          C24   1.263       .  A
O17          C24   1.267       .  A
C18          O25   1.261       .  A
C18          O19   1.264       .  A
C18        C1768   1.479       .  S
C20          O22   1.265       .  A
C20          O26   1.260       .  A
C20        C1705   1.484       .  S
C24        C1693   1.476       .  S
In27         O29   2.234       .  S
In27         O30   2.237       .  S
In27         O38   2.231       .  S
In27         O32   2.243       .  S
In27         O34   2.263       .  S
In27         O35   2.240       .  S
In27         O36   2.209       .  S
In27         O39   2.233       .  S
C28          O34   1.268       .  A
C28          O36   1.260       .  A
C28        C1669   1.475       .  S
O29          C37   1.263       .  A
O30          C37   1.266       .  A
C31          O38   1.261       .  A
C31          O32   1.264       .  A
C31        C1681   1.474   1_556  S
C33          O35   1.264       .  A
C33          O39   1.260       .  A
C33        C1660   1.480       .  S
C37        C1645   1.477       .  S
In40         O42   2.239       .  S
In40         O43   2.241       .  S
In40         O51   2.236       .  S
In40         O45   2.243       .  S
In40         O47   2.270       .  S
In40         O48   2.251       .  S
In40         O49   2.217       .  S
In40         O52   2.248       .  S
C41          O47   1.266       .  A
C41          O49   1.259       .  A
C41        C1636   1.475       .  S
O42          C50   1.264       .  A
O43          C50   1.265       .  A
C44          O51   1.260       .  A
C44          O45   1.263       .  A
C44        C1684   1.475       .  S
C46          O48   1.263       .  A
C46          O52   1.258       .  A
C46        C1756   1.483       .  S
C50        C1621   1.479       .  S
In53         O55   2.233       .  S
In53         O56   2.234       .  S
In53         O64   2.232       .  S
In53         O58   2.248       .  S
In53         O60   2.271       .  S
In53         O61   2.244       .  S
In53         O62   2.196       .  S
In53         O65   2.235       .  S
C54          O60   1.269       .  A
C54          O62   1.258       .  A
C54        C1597   1.474       .  S
O55          C63   1.264       .  A
O56          C63   1.266       .  A
C57          O64   1.261       .  A
C57          O58   1.264       .  A
C57        C1612   1.476       .  S
C59          O61   1.264       .  A
C59          O65   1.260       .  A
C59        C1585   1.480       .  S
C63        C1573   1.477       .  S
In66         O68   2.234       .  S
In66         O69   2.227       .  S
In66         O77   2.226       .  S
In66         O71   2.248       .  S
In66         O73   2.266       .  S
In66         O74   2.248       .  S
In66         O75   2.214       .  S
In66         O78   2.236       .  S
C67          O73   1.267       .  A
C67          O75   1.258       .  A
C67        C1657   1.474       .  S
O68          C76   1.264       .  A
O69          C76   1.265       .  A
C70          O77   1.260       .  A
C70          O71   1.264       .  A
C70        C1609   1.475       .  S
C72          O74   1.262       .  A
C72          O78   1.259       .  A
C72        C1561   1.481       .  S
C76        C1549   1.474       .  S
In79         O81   2.247       .  S
In79         O82   2.221       .  S
In79         O90   2.261       .  S
In79         O84   2.248       .  S
In79         O86   2.273       .  S
In79         O87   2.257       .  S
In79         O88   2.238       .  S
In79         O91   2.232       .  S
C80          O86   1.259       .  A
C80          O88   1.257       .  A
C80        C1525   1.476       .  S
O81          C89   1.265       .  A
O82          C89   1.262       .  A
C83          O90   1.258       .  A
C83          O84   1.258       .  A
C83        C1540   1.477       .  S
C85          O87   1.263       .  A
C85          O91   1.260       .  A
C85        C1516   1.482       .  S
C89        C1501   1.478       .  S
In92         O94   2.237       .  S
In92         O95   2.235       .  S
In92        O103   2.236       .  S
In92         O97   2.246       .  S
In92         O99   2.272       .  S
In92        O100   2.237       .  S
In92        O101   2.207       .  S
In92        O104   2.233       .  S
C93          O99   1.270       .  A
C93         O101   1.259       .  A
C93        C1564   1.479       .  S
O94         C102   1.265       .  A
O95         C102   1.266       .  A
C96         O103   1.261       .  A
C96          O97   1.266       .  A
C96        C1537   1.477       .  S
C98         O100   1.265       .  A
C98         O104   1.260       .  A
C98        C1672   1.478       .  S
C102       C1489   1.480       .  S
In105       O107   2.235       .  S
In105       O108   2.236       .  S
In105       O116   2.234       .  S
In105       O110   2.234       .  S
In105       O112   2.263       .  S
In105       O113   2.247       .  S
In105       O114   2.202       .  S
In105       O117   2.237       .  S
C106        O112   1.267       .  A
C106        O114   1.259       .  A
C106       C1465   1.468       .  S
O107        C115   1.263       .  A
O108        C115   1.265       .  A
C109        O116   1.261       .  A
C109        O110   1.262       .  A
C109       C1477   1.472       .  S
C111        O113   1.263       .  A
C111        O117   1.259       .  A
C111       C1717   1.482       .  S
C115       C1456   1.474       .  S
In118       O120   2.229       .  S
In118       O121   2.241       .  S
In118       O129   2.230       .  S
In118       O123   2.237       .  S
In118       O125   2.261       .  S
In118       O126   2.254       .  S
In118       O127   2.203       .  S
In118       O130   2.234       .  S
C119        O125   1.268       .  A
C119        O127   1.260       .  A
C119       C1441   1.470       .  S
O120        C128   1.263       .  A
O121        C128   1.267       .  A
C122        O129   1.261       .  A
C122        O123   1.263       .  A
C122       C1480   1.472       .  S
C124        O126   1.265       .  A
C124        O130   1.260       .  A
C124       C1429   1.484       .  S
C128       C1417   1.475       .  S
In131       O133   2.233       .  S
In131       O134   2.238       .  S
In131       O142   2.237       .  S
In131       O136   2.246       .  S
In131       O138   2.260       .  S
In131       O139   2.254       .  S
In131       O140   2.222       .  S
In131       O143   2.234       .  S
C132        O138   1.267       .  A
C132        O140   1.260       .  A
C132       C1393   1.471       .  S
O133        C141   1.264       .  A
O134        C141   1.267       .  A
C135        O142   1.259       .  A
C135        O136   1.263       .  A
C135       C1405   1.473       .  S
C137        O139   1.263       .  A
C137        O143   1.258       .  A
C137       C1384   1.481       .  S
C141       C1372   1.475       .  S
In144       O146   2.228       .  S
In144       O147   2.229       .  S
In144       O155   2.236       .  S
In144       O149   2.243       .  S
In144       O151   2.269       .  S
In144       O152   2.241       .  S
In144       O153   2.217       .  S
In144       O156   2.237       .  S
C145        O151   1.268       .  A
C145        O153   1.259       .  A
C145       C1360   1.478       .  S
O146        C154   1.263       .  A
O147        C154   1.265       .  A
C148        O155   1.261       .  A
C148        O149   1.264       .  A
C148       C1408   1.479       .  S
C150        O152   1.262       .  A
C150        O156   1.260       .  A
C150       C1444   1.479       .  S
C154       C1345   1.477       .  S
In157       O159   2.218       .  S
In157       O160   2.236       .  S
In157       O168   2.231       .  S
In157       O162   2.233       .  S
In157       O164   2.258       .  S
In157       O165   2.261       .  S
In157       O166   2.214       .  S
In157       O169   2.215       .  S
C158        O164   1.270       .  A
C158        O166   1.263       .  A
C158       C1321   1.483       .  S
O159        C167   1.263       .  A
O160        C167   1.269       .  A
C161        O168   1.262       .  A
C161        O162   1.266       .  A
C161       C1333   1.475   1_556  S
C163        O165   1.268       .  A
C163        O169   1.261       .  A
C163       C1528   1.484       .  S
C167       C1309   1.475       .  S
In170       O172   2.231       .  S
In170       O173   2.237       .  S
In170       O181   2.242       .  S
In170       O175   2.244       .  S
In170       O177   2.273       .  S
In170       O178   2.243       .  S
In170       O179   2.205       .  S
In170       O182   2.239       .  S
C171        O177   1.268       .  A
C171        O179   1.259       .  A
C171       C1708   1.475       .  S
O172        C180   1.263       .  A
O173        C180   1.265       .  A
C174        O181   1.260       .  A
C174        O175   1.263       .  A
C174       C1336   1.474       .  S
C176        O178   1.263       .  A
C176        O182   1.260       .  A
C176       C1468   1.480       .  S
C180       C1297   1.477       .  S
In183       O185   2.231       .  S
In183       O186   2.233       .  S
In183       O194   2.222       .  S
In183       O188   2.247       .  S
In183       O190   2.263       .  S
In183       O191   2.250       .  S
In183       O192   2.209       .  S
In183       O195   2.237       .  S
C184        O190   1.268       .  A
C184        O192   1.259       .  A
C184       C1273   1.475       .  S
O185        C193   1.264       .  A
O186        C193   1.266       .  A
C187        O194   1.261       .  A
C187        O188   1.265       .  A
C187       C1285   1.479       .  S
C189        O191   1.264       .  A
C189        O195   1.260       .  A
C189       C1264   1.481       .  S
C193       C1249   1.474       .  S
In196       O198   2.240       .  S
In196       O199   2.248       .  S
In196       O207   2.251       .  S
In196       O201   2.259       .  S
In196       O203   2.263       .  S
In196       O204   2.244       .  S
In196       O205   2.235       .  S
In196       O208   2.253       .  S
C197        O203   1.259       .  A
C197        O205   1.256       .  A
C197       C1513   1.471       .  S
O198        C206   1.263       .  A
O199        C206   1.265       .  A
C200        O207   1.257       .  A
C200        O201   1.258       .  A
C200       C1288   1.474       .  S
C202        O204   1.260       .  A
C202        O208   1.260       .  A
C202       C1324   1.482       .  S
C206       C1240   1.482       .  S
In209       O211   2.243       .  S
In209       O212   2.243       .  S
In209       O220   2.249       .  S
In209       O214   2.258       .  S
In209       O216   2.271       .  S
In209       O217   2.257       .  S
In209       O218   2.220       .  S
In209       O221   2.244       .  S
C210        O216   1.268       .  A
C210        O218   1.259       .  A
C210       C1432   1.478       .  S
O211        C219   1.263       .  A
O212        C219   1.266       .  A
C213        O220   1.261       .  A
C213        O214   1.263       .  A
C213       C1228   1.483       .  S
C215        O217   1.263       .  A
C215        O221   1.259       .  A
C215       C1357   1.484       .  S
C219       C1213   1.483       .  S
In222       O224   2.238       .  S
In222       O225   2.227       .  S
In222       O233   2.237       .  S
In222       O227   2.256       .  S
In222       O229   2.264       .  S
In222       O230   2.259       .  S
In222       O231   2.209       .  S
In222       O234   2.221       .  S
C223        O229   1.270       .  A
C223        O231   1.260       .  A
C223       C1201   1.477       .  S
O224        C232   1.264       .  A
O225        C232   1.267       .  A
C226        O233   1.261       .  A
C226        O227   1.265       .  A
C226       C1225   1.482   1_556  S
C228        O230   1.265       .  A
C228        O234   1.259       .  A
C228       C1276   1.480       .  S
C232       C1189   1.478       .  S
In235       O237   2.242       .  S
In235       O238   2.234       .  S
In235       O246   2.224       .  S
In235       O240   2.244       .  S
In235       O242   2.261       .  S
In235       O243   2.248       .  S
In235       O244   2.210       .  S
In235       O247   2.229       .  S
C236        O242   1.267       .  A
C236        O244   1.259       .  A
C236       C1165   1.470       .  S
O237        C245   1.264       .  A
O238        C245   1.266       .  A
C239        O246   1.261       .  A
C239        O240   1.264       .  A
C239       C1177   1.476       .  S
C241        O243   1.264       .  A
C241        O247   1.258       .  A
C241       C1600   1.477       .  S
C245       C1153   1.479       .  S
In248       O250   2.227       .  S
In248       O251   2.239       .  S
In248       O259   2.230       .  S
In248       O253   2.250       .  S
In248       O255   2.271       .  S
In248       O256   2.246       .  S
In248       O257   2.208       .  S
In248       O260   2.240       .  S
C249        O255   1.269       .  A
C249        O257   1.259       .  A
C249       C1261   1.478       .  S
O250        C258   1.264       .  A
O251        C258   1.267       .  A
C252        O259   1.261       .  A
C252        O253   1.265       .  A
C252       C1180   1.481       .  S
C254        O256   1.265       .  A
C254        O260   1.261       .  A
C254       C1204   1.482       .  S
C258       C1144   1.474       .  S
In261       O263   2.239       .  S
In261       O264   2.238       .  S
In261       O272   2.232       .  S
In261       O266   2.255       .  S
In261       O268   2.269       .  S
In261       O269   2.247       .  S
In261       O270   2.210       .  S
In261       O273   2.246       .  S
C262        O268   1.268       .  A
C262        O270   1.259       .  A
C262       C1744   1.473       .  S
O263        C271   1.264       .  A
O264        C271   1.265       .  A
C265        O272   1.260       .  A
C265        O266   1.264       .  A
C265       C1132   1.478       .  S
C267        O269   1.263       .  A
C267        O273   1.259       .  A
C267       C1633   1.483       .  S
C271       C1120   1.478       .  S
In274       O276   2.234       .  S
In274       O277   2.244       .  S
In274       O285   2.233       .  S
In274       O279   2.248       .  S
In274       O281   2.262       .  S
In274       O282   2.253       .  S
In274       O283   2.206       .  S
In274       O286   2.228       .  S
C275        O281   1.269       .  A
C275        O283   1.261       .  A
C275       C1105   1.475       .  S
O276        C284   1.263       .  A
O277        C284   1.266       .  A
C278        O285   1.261       .  A
C278        O279   1.264       .  A
C278       C1129   1.477       .  S
C280        O282   1.266       .  A
C280        O286   1.260       .  A
C280       C1396   1.482       .  S
C284       C1093   1.481       .  S
In287       O289   2.239       .  S
In287       O290   2.239       .  S
In287       O298   2.238       .  S
In287       O292   2.258       .  S
In287       O294   2.272       .  S
In287       O295   2.243       .  S
In287       O296   2.211       .  S
In287       O299   2.242       .  S
C288        O294   1.267       .  A
C288        O296   1.257       .  A
C288       C1381   1.475       .  S
O289        C297   1.261       .  A
O290        C297   1.264       .  A
C291        O298   1.259       .  A
C291        O292   1.264       .  A
C291       C1081   1.480       .  S
C293        O295   1.263       .  A
C293        O299   1.262       .  A
C293       C1108   1.482       .  S
C297       C1069   1.477       .  S
In300       O302   2.237       .  S
In300       O303   2.239       .  S
In300       O311   2.224       .  S
In300       O305   2.262       .  S
In300       O307   2.269       .  S
In300       O308   2.236       .  S
In300       O309   2.206       .  S
In300       O312   2.235       .  S
C301        O307   1.270       .  A
C301        O309   1.258       .  A
C301       C1588   1.478       .  S
O302        C310   1.263       .  A
O303        C310   1.265       .  A
C304        O311   1.260       .  A
C304        O305   1.266       .  A
C304       C1084   1.479   1_556  S
C306        O308   1.265       .  A
C306        O312   1.262       .  A
C306       C1168   1.481       .  S
C310       C1057   1.478       .  S
In313       O315   2.232       .  S
In313       O316   2.238       .  S
In313       O324   2.234       .  S
In313       O318   2.244       .  S
In313       O320   2.258       .  S
In313       O321   2.274       .  S
In313       O322   2.202       .  S
In313       O325   2.224       .  S
C314        O320   1.269       .  A
C314        O322   1.261       .  A
C314       C1033   1.473       .  S
O315        C323   1.264       .  A
O316        C323   1.268       .  A
C317        O324   1.260       .  A
C317        O318   1.263       .  A
C317       C1045   1.469       .  S
C319        O321   1.266       .  A
C319        O325   1.258       .  A
C319       C1021   1.485       .  S
C323       C1237   1.478       .  S
In326       O328   2.243       .  S
In326       O329   2.232       .  S
In326       O337   2.239       .  S
In326       O331   2.236       .  S
In326       O333   2.256       .  S
In326       O334   2.251       .  S
In326       O335   2.204       .  S
In326       O338   2.232       .  S
C327        O333   1.265       .  A
C327        O335   1.259       .  A
C327       C1009   1.467       .  S
O328        C336   1.263       .  A
O329        C336   1.264       .  A
C330        O337   1.260       .  A
C330        O331   1.261       .  A
C330       C1048   1.475       .  S
C332        O334   1.262       .  A
C332        O338   1.258       .  A
C332        C997   1.476       .  S
C336       C1696   1.479       .  S
In339       O341   2.231       .  S
In339       O342   2.234       .  S
In339       O350   2.229       .  S
In339       O344   2.249       .  S
In339       O346   2.267       .  S
In339       O347   2.247       .  S
In339       O348   2.206       .  S
In339       O351   2.240       .  S
C340        O346   1.268       .  A
C340        O348   1.259       .  A
C340        C973   1.478       .  S
O341        C349   1.263       .  A
O342        C349   1.266       .  A
C343        O350   1.260       .  A
C343        O344   1.264       .  A
C343        C985   1.476       .  S
C345        O347   1.263       .  A
C345        O351   1.261       .  A
C345        C964   1.482       .  S
C349       C1552   1.475       .  S
In352       O354   2.234       .  S
In352       O355   2.234       .  S
In352       O363   2.244       .  S
In352       O357   2.231       .  S
In352       O359   2.266       .  S
In352       O360   2.252       .  S
In352       O361   2.209       .  S
In352       O364   2.234       .  S
C353        O359   1.265       .  A
C353        O361   1.258       .  A
C353        C949   1.468       .  S
O354        C362   1.263       .  A
O355        C362   1.266       .  A
C356        O363   1.262       .  A
C356        O357   1.261       .  A
C356        C988   1.476       .  S
C358        O360   1.262       .  A
C358        O364   1.258       .  A
C358       C1036   1.478       .  S
C362       C1312   1.477       .  S
In365       O367   2.236       .  S
In365       O368   2.236       .  S
In365       O376   2.229       .  S
In365       O370   2.243       .  S
In365       O372   2.258       .  S
In365       O373   2.248       .  S
In365       O374   2.191       .  S
In365       O377   2.231       .  S
C366        O372   1.269       .  A
C366        O374   1.259       .  A
C366        C925   1.472       .  S
O367        C375   1.264       .  A
O368        C375   1.267       .  A
C369        O376   1.262       .  A
C369        O370   1.264       .  A
C369        C937   1.474       .  S
C371        O373   1.265       .  A
C371        O377   1.260       .  A
C371        C913   1.481       .  S
C375       C1348   1.478       .  S
In378       O380   2.232       .  S
In378       O381   2.238       .  S
In378       O389   2.223       .  S
In378       O383   2.253       .  S
In378       O385   2.260       .  S
In378       O386   2.239       .  S
In378       O387   2.209       .  S
In378       O390   2.234       .  S
C379        O385   1.268       .  A
C379        O387   1.259       .  A
C379        C901   1.470       .  S
O380        C388   1.264       .  A
O381        C388   1.266       .  A
C382        O389   1.260       .  A
C382        O383   1.264       .  A
C382        C940   1.478       .  S
C384        O386   1.263       .  A
C384        O390   1.259       .  A
C384       C1012   1.477       .  S
C388       C1300   1.474       .  S
In391       O393   2.231       .  S
In391       O394   2.238       .  S
In391       O402   2.227       .  S
In391       O396   2.242       .  S
In391       O398   2.260       .  S
In391       O399   2.250       .  S
In391       O400   2.215       .  S
In391       O403   2.251       .  S
C392        O398   1.266       .  A
C392        O400   1.259       .  A
C392        C877   1.474       .  S
O393        C401   1.263       .  A
O394        C401   1.267       .  A
C395        O402   1.260       .  A
C395        O396   1.262       .  A
C395        C889   1.469       .  S
C397        O399   1.263       .  A
C397        O403   1.259       .  A
C397        C865   1.486       .  S
C401       C1141   1.478       .  S
In404       O406   2.236       .  S
In404       O407   2.229       .  S
In404       O415   2.231       .  S
In404       O409   2.232       .  S
In404       O411   2.263       .  S
In404       O412   2.227       .  S
In404       O413   2.204       .  S
In404       O416   2.241       .  S
C405        O411   1.266       .  A
C405        O413   1.258       .  A
C405        C853   1.468       .  S
O406        C414   1.263       .  A
O407        C414   1.264       .  A
C408        O415   1.260       .  A
C408        O409   1.262       .  A
C408        C892   1.471       .  S
C410        O412   1.261       .  A
C410        O416   1.259       .  A
C410        C928   1.472       .  S
C414       C1420   1.478       .  S
In417       O419   2.244       .  S
In417       O420   2.235       .  S
In417       O428   2.253       .  S
In417       O422   2.255       .  S
In417       O424   2.279       .  S
In417       O425   2.252       .  S
In417       O426   2.204       .  S
In417       O429   2.240       .  S
C418        O424   1.268       .  A
C418        O426   1.257       .  A
C418        C829   1.475       .  S
O419        C427   1.265       .  A
O420        C427   1.266       .  A
C421        O428   1.261       .  A
C421        O422   1.263       .  A
C421        C841   1.484       .  S
C423        O425   1.262       .  A
C423        O429   1.258       .  A
C423        C976   1.480       .  S
C427       C1492   1.483       .  S
In430       O432   2.234       .  S
In430       O433   2.236       .  S
In430       O441   2.243       .  S
In430       O435   2.253       .  S
In430       O437   2.270       .  S
In430       O438   2.245       .  S
In430       O439   2.222       .  S
In430       O442   2.233       .  S
C431        O437   1.269       .  A
C431        O439   1.260       .  A
C431        C817   1.479       .  S
O432        C440   1.264       .  A
O433        C440   1.266       .  A
C434        O441   1.261       .  A
C434        O435   1.265       .  A
C434        C844   1.485       .  S
C436        O438   1.264       .  A
C436        O442   1.259       .  A
C436        C808   1.479       .  S
C440       C1117   1.477       .  S
In443       O445   2.226       .  S
In443       O446   2.238       .  S
In443       O454   2.236       .  S
In443       O448   2.240       .  S
In443       O450   2.265       .  S
In443       O451   2.244       .  S
In443       O452   2.216       .  S
In443       O455   2.236       .  S
C444        O450   1.267       .  A
C444        O452   1.259       .  A
C444        C781   1.477       .  S
O445        C453   1.263       .  A
O446        C453   1.266       .  A
C447        O454   1.262       .  A
C447        O448   1.263       .  A
C447        C793   1.479       .  S
C449        O451   1.263       .  A
C449        O455   1.260       .  A
C449        C880   1.479       .  S
C453       C1192   1.477       .  S
In456       O458   2.242       .  S
In456       O459   2.229       .  S
In456       O467   2.249       .  S
In456       O461   2.244       .  S
In456       O463   2.255       .  S
In456       O464   2.252       .  S
In456       O465   2.234       .  S
In456       O468   2.235       .  S
C457        O463   1.259       .  A
C457        O465   1.259       .  A
C457       C1024   1.475       .  S
O458        C466   1.265       .  A
O459        C466   1.262       .  A
C460        O467   1.258       .  A
C460        O461   1.259       .  A
C460        C796   1.474       .  S
C462        O464   1.262       .  A
C462        O468   1.258       .  A
C462        C952   1.477       .  S
C466       C1504   1.479       .  S
In469       O471   2.239       .  S
In469       O472   2.241       .  S
In469       O480   2.240       .  S
In469       O474   2.263       .  S
In469       O476   2.263       .  S
In469       O477   2.239       .  S
In469       O478   2.211       .  S
In469       O481   2.241       .  S
C470        O476   1.270       .  A
C470        O478   1.259       .  A
C470        C757   1.476       .  S
O471        C479   1.262       .  A
O472        C479   1.266       .  A
C473        O480   1.261       .  A
C473        O474   1.266       .  A
C473        C769   1.483       .  S
C475        O477   1.266       .  A
C475        O481   1.263       .  A
C475        C745   1.485       .  S
C479       C1060   1.477       .  S
In482       O484   2.232       .  S
In482       O485   2.244       .  S
In482       O493   2.245       .  S
In482       O487   2.260       .  S
In482       O489   2.285       .  S
In482       O490   2.241       .  S
In482       O491   2.213       .  S
In482       O494   2.230       .  S
C483        O489   1.268       .  A
C483        O491   1.257       .  A
C483        C868   1.483       .  S
O484        C492   1.262       .  A
O485        C492   1.264       .  A
C486        O493   1.260       .  A
C486        O487   1.264       .  A
C486        C772   1.483       .  S
C488        O490   1.263       .  A
C488        O494   1.262       .  A
C488        C784   1.477       .  S
C492       C1252   1.478       .  S
In495       O497   2.239       .  S
In495       O498   2.240       .  S
In495       O506   2.232       .  S
In495       O500   2.254       .  S
In495       O502   2.265       .  S
In495       O503   2.259       .  S
In495       O504   2.202       .  S
In495       O507   2.225       .  S
C496        O502   1.269       .  A
C496        O504   1.259       .  A
C496        C724   1.477       .  S
O497        C505   1.265       .  A
O498        C505   1.266       .  A
C499        O506   1.261       .  A
C499        O500   1.264       .  A
C499        C736   1.477       .  S
C501        O503   1.265       .  A
C501        O507   1.258       .  A
C501        C760   1.482       .  S
C505       C1156   1.480       .  S
In508       O510   2.237       .  S
In508       O511   2.232       .  S
In508       O519   2.216       .  S
In508       O513   2.258       .  S
In508       O515   2.267       .  S
In508       O516   2.240       .  S
In508       O517   2.204       .  S
In508       O520   2.242       .  S
C509        O515   1.269       .  A
C509        O517   1.259       .  A
C509        C961   1.473       .  S
O510        C518   1.264       .  A
O511        C518   1.265       .  A
C512        O519   1.260       .  A
C512        O513   1.265       .  A
C512        C733   1.477       .  S
C514        O516   1.263       .  A
C514        O520   1.261       .  A
C514        C832   1.482       .  S
C518       C1648   1.477       .  S
In521       O523   2.238       .  S
In521       O524   2.231       .  S
In521       O532   2.231       .  S
In521       O526   2.252       .  S
In521       O528   2.265       .  S
In521       O529   2.250       .  S
In521       O530   2.206       .  S
In521       O533   2.232       .  S
C522        O528   1.267       .  A
C522        O530   1.258       .  A
C522        C700   1.469       .  S
O523        C531   1.264       .  A
O524        C531   1.264       .  A
C525        O532   1.260       .  A
C525        O526   1.262       .  A
C525        C709   1.476       .  S
C527        O529   1.262       .  A
C527        O533   1.258       .  A
C527        C688   1.477       .  S
C531       C1096   1.476       .  S
In534       O536   2.236       .  S
In534       O537   2.250       .  S
In534       O545   2.232       .  S
In534       O539   2.243       .  S
In534       O541   2.262       .  S
In534       O542   2.250       .  S
In534       O543   2.203       .  S
In534       O546   2.236       .  S
C535        O541   1.267       .  A
C535        O543   1.260       .  A
C535        C916   1.472       .  S
O536        C544   1.264       .  A
O537        C544   1.266       .  A
C538        O545   1.261       .  A
C538        O539   1.262       .  A
C538        C712   1.474       .  S
C540        O542   1.264       .  A
C540        O546   1.258       .  A
C540        C856   1.480       .  S
C544       C1216   1.481       .  S
In547       O549   2.240       .  S
In547       O550   2.243       .  S
In547       O558   2.243       .  S
In547       O552   2.261       .  S
In547       O554   2.273       .  S
In547       O555   2.246       .  S
In547       O556   2.220       .  S
In547       O559   2.239       .  S
C548        O554   1.268       .  A
C548        O556   1.258       .  A
C548        C748   1.480       .  S
O549        C557   1.263       .  A
O550        C557   1.265       .  A
C551        O558   1.260       .  A
C551        O552   1.265       .  A
C551        C673   1.483       .  S
C553        O555   1.264       .  A
C553        O559   1.261       .  A
C553        C721   1.480       .  S
C557       C1576   1.478       .  S
In560       O562   2.241       .  S
In560       O563   2.244       .  S
In560       O571   2.234       .  S
In560       O565   2.267       .  S
In560       O567   2.275       .  S
In560       O568   2.240       .  S
In560       O569   2.211       .  S
In560       O572   2.241       .  S
C561        O567   1.269       .  A
C561        O569   1.259       .  A
C561        C661   1.480       .  S
O562        C570   1.263       .  A
O563        C570   1.265       .  A
C564        O571   1.260       .  A
C564        O565   1.265       .  A
C564        C676   1.481       .  S
C566        O568   1.265       .  A
C566        O572   1.262       .  A
C566        C697   1.482       .  S
C570       C1369   1.481       .  S
In573       O575   2.248       .  S
In573       O576   2.237       .  S
In573       O584   2.238       .  S
In573       O578   2.250       .  S
In573       O580   2.271       .  S
In573       O581   2.257       .  S
In573       O582   2.208       .  S
In573       O585   2.248       .  S
C574        O580   1.268       .  A
C574        O582   1.259       .  A
C574        C637   1.475       .  S
O575        C583   1.264       .  A
O576        C583   1.266       .  A
C577        O584   1.260       .  A
C577        O578   1.263       .  A
C577        C649   1.475       .  S
C579        O581   1.263       .  A
C579        O585   1.259       .  A
C579        C820   1.486       .  S
C583       C1624   1.479       .  S
In586       O588   2.231       .  S
In586       O589   2.225       .  S
In586       O597   2.223       .  S
In586       O591   2.248       .  S
In586       O593   2.258       .  S
In586       O594   2.250       .  S
In586       O595   2.206       .  S
In586       O598   2.220       .  S
C587        O593   1.269       .  A
C587        O595   1.259       .  A
C587       C1000   1.474       .  S
O588        C596   1.265       .  A
O589        C596   1.267       .  A
C590        O597   1.262       .  A
C590        O591   1.265       .  A
C590        C652   1.479       .  S
C592        O594   1.265       .  A
C592        O598   1.259       .  A
C592        C904   1.479       .  S
C596       C1453   1.477       .  S
In599       O601   2.233       .  S
In599       O602   2.233       .  S
In599       O610   2.219       .  S
In599       O604   2.247       .  S
In599       O606   2.260       .  S
In599       O607   2.233       .  S
In599       O608   2.207       .  S
In599       O611   2.241       .  S
C600        O606   1.270       .  A
C600        O608   1.259       .  A
C600        C685   1.475       .  S
O601        C609   1.264       .  A
O602        C609   1.266       .  A
C603        O610   1.261       .  A
C603        O604   1.266       .  A
C603        C625   1.475       .  S
C605        O607   1.264       .  A
C605        O611   1.261       .  A
C605        C664   1.481       .  S
C609       C1072   1.476       .  S
In612       O614   2.238       .  S
In612       O615   2.232       .  S
In612       O623   2.226       .  S
In612       O617   2.240       .  S
In612       O619   2.257       .  S
In612       O620   2.255       .  S
In612       O621   2.196       .  S
In612       O624   2.242       .  S
C613        O619   1.268       .  A
C613        O621   1.260       .  A
C613        C805   1.468       .  S
O614        C622   1.263       .  A
O615        C622   1.267       .  A
C616        O623   1.260       .  A
C616        O617   1.263       .  A
C616        C628   1.468       .  S
C618        O620   1.264       .  A
C618        O624   1.259       .  A
C618        C640   1.484       .  S
C622       C1732   1.478       .  S
C625        C626   1.405       .  A
C625        C630   1.409       .  A
C626        C627   1.398       .  A
C626        H631   1.084       .  S
C627        C628   1.407       .  A
C627        O632   1.372       .  S
C628        C629   1.401       .  A
C629        C630   1.399       .  A
C629        H633   1.084       .  S
C630        O634   1.371       .  S
O632        H636   0.992       .  S
O634        H635   0.992       .  S
C637        C638   1.401       .  A
C637        C642   1.409       .  A
C638        C639   1.403       .  A
C638        H643   1.084       .  S
C639        C640   1.415       .  A
C639        O644   1.371       .  S
C640        C641   1.403       .  A
C641        C642   1.398       .  A
C641        H645   1.083       .  S
C642        O646   1.372       .  S
O644        H648   0.992       .  S
O646        H647   0.992       .  S
C649        C650   1.403       .  A
C649        C654   1.407       .  A
C650        C651   1.402       .  A
C650        H655   1.084       .  S
C651        C652   1.410       .  A
C651        O656   1.372       .  S
C652        C653   1.405       .  A
C653        C654   1.398       .  A
C653        H657   1.084       .  S
C654        O658   1.372       .  S
O656        H660   0.992       .  S
O658        H659   0.992       .  S
C661        C662   1.405       .  A
C661        C666   1.408       .  A
C662        C663   1.397       .  A
C662        H667   1.084       .  S
C663        C664   1.409       .  A
C663        O668   1.372       .  S
C664        C665   1.408       .  A
C665        C666   1.404       .  A
C665        H669   1.083       .  S
C666        O670   1.371       .  S
O668        H672   0.992       .  S
O670        H671   0.992       .  S
C673        C674   1.402       .  A
C673        C678   1.413       .  A
C674        C675   1.402       .  A
C674        H679   1.084       .  S
C675        C676   1.411       .  A
C675        O680   1.372       .  S
C676        C677   1.403       .  A
C677        C678   1.404       .  A
C677        H681   1.084       .  S
C678        O682   1.372       .  S
O680        H684   0.992       .  S
O682        H683   0.992       .  S
C685        C686   1.401       .  A
C685        C690   1.412       .  A
C686        C687   1.400       .  A
C686        H691   1.083       .  S
C687        C688   1.411       .  A
C687        O692   1.371       .  S
C688        C689   1.402       .  A
C689        C690   1.399       .  A
C689        H693   1.084       .  S
C690        O694   1.373       .  S
O692        H696   0.992       .  S
O694        H695   0.992       .  S
C697        C698   1.404       .  A
C697        C702   1.414       .  A
C698        C699   1.396       .  A
C698        H703   1.083       .  S
C699        C700   1.407       .  A
C699        O704   1.372       .  S
C700        C701   1.400       .  A
C701        C702   1.403       .  A
C701        H705   1.084       .  S
C702        O706   1.372       .  S
O704        H708   0.992       .  S
O706        H707   0.992       .  S
C709        C710   1.405       .  A
C709        C714   1.409       .  A
C710        C711   1.402       .  A
C710        H715   1.084       .  S
C711        C712   1.409       .  A
C711        O716   1.372       .  S
C712        C713   1.401       .  A
C713        C714   1.397       .  A
C713        H717   1.084       .  S
C714        O718   1.371       .  S
O716        H720   0.992       .  S
O718        H719   0.992       .  S
C721        C722   1.402       .  A
C721        C726   1.412       .  A
C722        C723   1.398       .  A
C722        H727   1.084       .  S
C723        C724   1.411       .  A
C723        O728   1.373       .  S
C724        C725   1.402       .  A
C725        C726   1.403       .  A
C725        H729   1.083       .  S
C726        O730   1.371       .  S
O728        H732   0.992       .  S
O730        H731   0.992       .  S
C733        C734   1.403       .  A
C733        C738   1.410       .  A
C734        C735   1.397       .  A
C734        H739   1.084       .  S
C735        C736   1.407       .  A
C735        O740   1.372       .  S
C736        C737   1.405       .  A
C737        C738   1.404       .  A
C737        H741   1.084       .  S
C738        O742   1.372       .  S
O740        H744   0.992       .  S
O742        H743   0.992       .  S
C745        C746   1.409       .  A
C745        C750   1.410       .  A
C746        C747   1.404       .  A
C746        H751   1.083       .  S
C747        C748   1.408       .  A
C747        O752   1.371       .  S
C748        C749   1.405       .  A
C749        C750   1.399       .  A
C749        H753   1.084       .  S
C750        O754   1.371       .  S
O752        H756   0.992       .  S
O754        H755   0.992       .  S
C757        C758   1.399       .  A
C757        C762   1.411       .  A
C758        C759   1.400       .  A
C758        H763   1.084       .  S
C759        C760   1.414       .  A
C759        O764   1.371       .  S
C760        C761   1.403       .  A
C761        C762   1.401       .  A
C761        H765   1.084       .  S
C762        O766   1.373       .  S
O764        H768   0.992       .  S
O766        H767   0.992       .  S
C769        C770   1.406       .  A
C769        C774   1.408       .  A
C770        C771   1.403       .  A
C770        H775   1.084       .  S
C771        C772   1.409       .  A
C771        O776   1.372       .  S
C772        C773   1.407       .  A
C773        C774   1.404       .  A
C773        H777   1.084       .  S
C774        O778   1.371       .  S
O776        H780   0.992       .  S
O778        H779   0.992       .  S
C781        C782   1.406       .  A
C781        C786   1.407       .  A
C782        C783   1.398       .  A
C782        H787   1.084       .  S
C783        C784   1.409       .  A
C783        O788   1.372       .  S
C784        C785   1.406       .  A
C785        C786   1.401       .  A
C785        H789   1.083       .  S
C786        O790   1.371       .  S
O788        H792   0.992       .  S
O790        H791   0.992       .  S
C793        C794   1.406       .  A
C793        C798   1.410       .  A
C794        C795   1.400       .  A
C794        H799   1.083       .  S
C795        C796   1.408       .  A
C795        O800   1.372       .  S
C796        C797   1.402       .  A
C797        C798   1.398       .  A
C797        H801   1.084       .  S
C798        O802   1.371       .  S
O800        H804   0.992       .  S
O802        H803   0.992       .  S
C805        C806   1.402       .  A
C805        C810   1.404       .  A
C806        C807   1.394       .  A
C806        H811   1.084       .  S
C807        C808   1.409       .  A
C807        O812   1.371       .  S
C808        C809   1.409       .  A
C809        C810   1.401       .  A
C809        H813   1.083       .  S
C810        O814   1.371       .  S
O812        H816   0.992       .  S
O814        H815   0.992       .  S
C817        C818   1.405       .  A
C817        C822   1.406       .  A
C818        C819   1.400       .  A
C818        H823   1.084       .  S
C819        C820   1.410       .  A
C819        O824   1.371       .  S
C820        C821   1.409       .  A
C821        C822   1.404       .  A
C821        H825   1.083       .  S
C822        O826   1.371       .  S
O824        H828   0.992       .  S
O826        H827   0.992       .  S
C829        C830   1.404       .  A
C829        C834   1.406       .  A
C830        C831   1.396       .  A
C830        H835   1.084       .  S
C831        C832   1.409       .  A
C831        O836   1.371       .  S
C832        C833   1.409       .  A
C833        C834   1.404       .  A
C833        H837   1.083       .  S
C834        O838   1.371       .  S
O836        H840   0.992       .  S
O838        H839   0.992       .  S
C841        C842   1.405       .  A
C841        C846   1.410       .  A
C842        C843   1.403       .  A
C842        H847   1.084       .  S
C843        C844   1.410       .  A
C843        O848   1.371       .  S
C844        C845   1.406       .  A
C845        C846   1.403       .  A
C845        H849   1.084       .  S
C846        O850   1.371       .  S
O848        H852   0.992       .  S
O850        H851   0.992       .  S
C853        C854   1.400       .  A
C853        C858   1.407       .  A
C854        C855   1.401       .  A
C854        H859   1.084       .  S
C855        C856   1.415       .  A
C855        O860   1.371       .  S
C856        C857   1.403       .  A
C857        C858   1.395       .  A
C857        H861   1.083       .  S
C858        O862   1.372       .  S
O860        H864   0.992       .  S
O862        H863   0.991       .  S
C865        C866   1.410       .  A
C865        C870   1.409       .  A
C866        C867   1.406       .  A
C866        H871   1.083       .  S
C867        C868   1.408       .  A
C867        O872   1.371       .  S
C868        C869   1.405       .  A
C869        C870   1.397       .  A
C869        H873   1.084       .  S
C870        O874   1.372       .  S
O872        H876   0.992       .  S
O874        H875   0.992       .  S
C877        C878   1.404       .  A
C877        C882   1.406       .  A
C878        C879   1.398       .  A
C878        H883   1.084       .  S
C879        C880   1.409       .  A
C879        O884   1.371       .  S
C880        C881   1.407       .  A
C881        C882   1.401       .  A
C881        H885   1.083       .  S
C882        O886   1.371       .  S
O884        H888   0.992       .  S
O886        H887   0.992       .  S
C889        C890   1.401       .  A
C889        C894   1.407       .  A
C890        C891   1.398       .  A
C890        H895   1.084       .  S
C891        C892   1.409       .  A
C891        O896   1.372       .  S
C892        C893   1.403       .  A
C893        C894   1.398       .  A
C893        H897   1.084       .  S
C894        O898   1.372       .  S
O896        H900   0.992       .  S
O898        H899   0.992       .  S
C901        C902   1.404       .  A
C901        C906   1.403       .  A
C902        C903   1.398       .  A
C902        H907   1.084       .  S
C903        C904   1.409       .  A
C903        O908   1.371       .  S
C904        C905   1.408       .  A
C905        C906   1.399       .  A
C905        H909   1.083       .  S
C906        O910   1.372       .  S
O908        H912   0.992       .  S
O910        H911   0.992       .  S
C913        C914   1.409       .  A
C913        C918   1.409       .  A
C914        C915   1.402       .  A
C914        H919   1.083       .  S
C915        C916   1.405       .  A
C915        O920   1.371       .  S
C916        C917   1.403       .  A
C917        C918   1.396       .  A
C917        H921   1.084       .  S
C918        O922   1.371       .  S
O920        H924   0.992       .  S
O922        H923   0.992       .  S
C925        C926   1.403       .  A
C925        C930   1.410       .  A
C926        C927   1.402       .  A
C926        H931   1.083       .  S
C927        C928   1.412       .  A
C927        O932   1.372       .  S
C928        C929   1.400       .  A
C929        C930   1.392       .  A
C929        H933   1.084       .  S
C930        O934   1.373       .  S
O932        H936   0.992       .  S
O934        H935   0.992       .  S
C937        C938   1.401       .  A
C937        C942   1.409       .  A
C938        C939   1.397       .  A
C938        H943   1.084       .  S
C939        C940   1.410       .  A
C939        O944   1.372       .  S
C940        C941   1.405       .  A
C941        C942   1.403       .  A
C941        H945   1.083       .  S
C942        O946   1.372       .  S
O944        H948   0.992       .  S
O946        H947   0.991       .  S
C949        C950   1.400       .  A
C949        C954   1.407       .  A
C950        C951   1.401       .  A
C950        H955   1.084       .  S
C951        C952   1.413       .  A
C951        O956   1.371       .  S
C952        C953   1.403       .  A
C953        C954   1.396       .  A
C953        H957   1.084       .  S
C954        O958   1.372       .  S
O956        H960   0.991       .  S
O958        H959   0.991       .  S
C961        C962   1.403       .  A
C961        C966   1.405       .  A
C962        C963   1.398       .  A
C962        H967   1.084       .  S
C963        C964   1.410       .  A
C963        O968   1.372       .  S
C964        C965   1.409       .  A
C965        C966   1.402       .  A
C965        H969   1.083       .  S
C966        O970   1.371       .  S
O968        H972   0.992       .  S
O970        H971   0.992       .  S
C973        C974   1.405       .  A
C973        C978   1.407       .  A
C974        C975   1.396       .  A
C974        H979   1.084       .  S
C975        C976   1.409       .  A
C975        O980   1.372       .  S
C976        C977   1.408       .  A
C977        C978   1.403       .  A
C977        H981   1.083       .  S
C978        O982   1.371       .  S
O980        H984   0.991       .  S
O982        H983   0.992       .  S
C985        C986   1.402       .  A
C985        C990   1.410       .  A
C986        C987   1.399       .  A
C986        H991   1.084       .  S
C987        C988   1.410       .  A
C987        O992   1.372       .  S
C988        C989   1.403       .  A
C989        C990   1.400       .  A
C989        H993   1.084       .  S
C990        O994   1.372       .  S
O992        H996   0.992       .  S
O994        H995   0.992       .  S
C997        C998   1.402       .  A
C997       C1002   1.412       .  A
C998        C999   1.397       .  A
C998       H1003   1.084       .  S
C999       C1000   1.411       .  A
C999       O1004   1.372       .  S
C1000      C1001   1.401       .  A
C1001      C1002   1.400       .  A
C1001      H1005   1.084       .  S
C1002      O1006   1.371       .  S
O1004      H1008   0.992       .  S
O1006      H1007   0.992       .  S
C1009      C1010   1.400       .  A
C1009      C1014   1.407       .  A
C1010      C1011   1.400       .  A
C1010      H1015   1.084       .  S
C1011      C1012   1.414       .  A
C1011      O1016   1.372       .  S
C1012      C1013   1.403       .  A
C1013      C1014   1.394       .  A
C1013      H1017   1.083       .  S
C1014      O1018   1.372       .  S
O1016      H1020   0.992       .  S
O1018      H1019   0.991       .  S
C1021      C1022   1.405       .  A
C1021      C1026   1.414       .  A
C1022      C1023   1.404       .  A
C1022      H1027   1.083       .  S
C1023      C1024   1.412       .  A
C1023      O1028   1.373       .  S
C1024      C1025   1.400       .  A
C1025      C1026   1.398       .  A
C1025      H1029   1.084       .  S
C1026      O1030   1.371       .  S
O1028      H1032   0.992       .  S
O1030      H1031   0.992       .  S
C1033      C1034   1.404       .  A
C1033      C1038   1.405       .  A
C1034      C1035   1.396       .  A
C1034      H1039   1.084       .  S
C1035      C1036   1.408       .  A
C1035      O1040   1.371       .  S
C1036      C1037   1.408       .  A
C1037      C1038   1.402       .  A
C1037      H1041   1.083       .  S
C1038      O1042   1.371       .  S
O1040      H1044   0.992       .  S
O1042      H1043   0.991       .  S
C1045      C1046   1.401       .  A
C1045      C1050   1.407       .  A
C1046      C1047   1.398       .  A
C1046      H1051   1.084       .  S
C1047      C1048   1.410       .  A
C1047      O1052   1.372       .  S
C1048      C1049   1.405       .  A
C1049      C1050   1.400       .  A
C1049      H1053   1.084       .  S
C1050      O1054   1.371       .  S
O1052      H1056   0.992       .  S
O1054      H1055   0.992       .  S
C1057      C1058   1.406       .  A
C1057      C1062   1.408       .  A
C1058      C1059   1.400       .  A
C1058      H1063   1.084       .  S
C1059      C1060   1.406       .  A
C1059      O1064   1.371       .  S
C1060      C1061   1.407       .  A
C1061      C1062   1.401       .  A
C1061      H1065   1.084       .  S
C1062      O1066   1.372       .  S
O1064      H1068   0.992       .  S
O1066      H1067   0.992       .  S
C1069      C1070   1.402       .  A
C1069      C1074   1.412       .  A
C1070      C1071   1.400       .  A
C1070      H1075   1.084       .  S
C1071      C1072   1.411       .  A
C1071      O1076   1.372       .  S
C1072      C1073   1.402       .  A
C1073      C1074   1.401       .  A
C1073      H1077   1.084       .  S
C1074      O1078   1.372       .  S
O1076      H1080   0.992       .  S
O1078      H1079   0.992       .  S
C1081      C1082   1.402       .  A
C1081      C1086   1.412       .  A
C1082      C1083   1.400       .  A
C1082      H1087   1.084       .  S
C1083      C1084   1.411       .  A
C1083      O1088   1.372   1_554  S
C1084      C1085   1.402       .  A
C1085      C1086   1.404       .  A
C1085      H1089   1.084       .  S
C1086      O1090   1.372       .  S
O1088      H1092   0.992       .  S
O1090      H1091   0.992       .  S
C1093      C1094   1.407       .  A
C1093      C1098   1.408       .  A
C1094      C1095   1.400       .  A
C1094      H1099   1.084       .  S
C1095      C1096   1.407       .  A
C1095      O1100   1.372       .  S
C1096      C1097   1.405       .  A
C1097      C1098   1.401       .  A
C1097      H1101   1.084       .  S
C1098      O1102   1.372       .  S
O1100      H1104   0.991       .  S
O1102      H1103   0.992       .  S
C1105      C1106   1.404       .  A
C1105      C1110   1.406       .  A
C1106      C1107   1.397       .  A
C1106      H1111   1.084       .  S
C1107      C1108   1.410       .  A
C1107      O1112   1.371       .  S
C1108      C1109   1.408       .  A
C1109      C1110   1.403       .  A
C1109      H1113   1.083       .  S
C1110      O1114   1.371       .  S
O1112      H1116   0.992       .  S
O1114      H1115   0.992       .  S
C1117      C1118   1.406       .  A
C1117      C1122   1.407       .  A
C1118      C1119   1.400       .  A
C1118      H1123   1.084       .  S
C1119      C1120   1.408       .  A
C1119      O1124   1.371       .  S
C1120      C1121   1.406       .  A
C1121      C1122   1.400       .  A
C1121      H1125   1.084       .  S
C1122      O1126   1.371       .  S
O1124      H1128   0.991       .  S
O1126      H1127   0.992       .  S
C1129      C1130   1.403       .  A
C1129      C1134   1.409       .  A
C1130      C1131   1.400       .  A
C1130      H1135   1.084       .  S
C1131      C1132   1.410   1_655  A
C1131      O1136   1.372   1_655  S
C1132      C1133   1.404   1_455  A
C1133      C1134   1.402       .  A
C1133      H1137   1.084   1_655  S
C1134      O1138   1.371       .  S
O1136      H1140   0.992       .  S
O1138      H1139   0.992       .  S
C1141      C1142   1.408       .  A
C1141      C1146   1.408       .  A
C1142      C1143   1.400       .  A
C1142      H1147   1.084       .  S
C1143      C1144   1.406       .  A
C1143      O1148   1.371       .  S
C1144      C1145   1.404       .  A
C1145      C1146   1.400       .  A
C1145      H1149   1.084       .  S
C1146      O1150   1.372       .  S
O1148      H1152   0.992       .  S
O1150      H1151   0.992       .  S
C1153      C1154   1.406       .  A
C1153      C1158   1.408       .  A
C1154      C1155   1.402       .  A
C1154      H1159   1.084       .  S
C1155      C1156   1.408       .  A
C1155      O1160   1.371       .  S
C1156      C1157   1.406       .  A
C1157      C1158   1.400       .  A
C1157      H1161   1.084       .  S
C1158      O1162   1.371       .  S
O1160      H1164   0.992       .  S
O1162      H1163   0.991       .  S
C1165      C1166   1.402       .  A
C1165      C1170   1.404       .  A
C1166      C1167   1.397       .  A
C1166      H1171   1.084       .  S
C1167      C1168   1.410       .  A
C1167      O1172   1.372       .  S
C1168      C1169   1.409       .  A
C1169      C1170   1.402       .  A
C1169      H1173   1.083       .  S
C1170      O1174   1.371       .  S
O1172      H1176   0.992       .  S
O1174      H1175   0.992       .  S
C1177      C1178   1.402       .  A
C1177      C1182   1.409       .  A
C1178      C1179   1.399   1_565  A
C1178      H1183   1.084       .  S
C1179      C1180   1.411       .  A
C1179      O1184   1.372       .  S
C1180      C1181   1.405       .  A
C1181      C1182   1.401   1_545  A
C1181      H1185   1.083       .  S
C1182      O1186   1.372       .  S
O1184      H1188   0.992       .  S
O1186      H1187   0.992       .  S
C1189      C1190   1.401       .  A
C1189      C1194   1.412       .  A
C1190      C1191   1.397       .  A
C1190      H1195   1.084       .  S
C1191      C1192   1.412       .  A
C1191      O1196   1.371       .  S
C1192      C1193   1.403       .  A
C1193      C1194   1.401       .  A
C1193      H1197   1.084       .  S
C1194      O1198   1.371       .  S
O1196      H1200   0.991       .  S
O1198      H1199   0.992       .  S
C1201      C1202   1.402       .  A
C1201      C1206   1.410       .  A
C1202      C1203   1.403       .  A
C1202      H1207   1.084       .  S
C1203      C1204   1.414       .  A
C1203      O1208   1.371       .  S
C1204      C1205   1.403       .  A
C1205      C1206   1.398       .  A
C1205      H1209   1.084       .  S
C1206      O1210   1.373       .  S
O1208      H1212   0.992       .  S
O1210      H1211   0.992       .  S
C1213      C1214   1.402       .  A
C1213      C1218   1.413       .  A
C1214      C1215   1.401       .  A
C1214      H1219   1.084       .  S
C1215      C1216   1.412       .  A
C1215      O1220   1.371       .  S
C1216      C1217   1.403       .  A
C1217      C1218   1.404       .  A
C1217      H1221   1.084       .  S
C1218      O1222   1.371       .  S
O1220      H1224   0.991       .  S
O1222      H1223   0.992       .  S
C1225      C1226   1.404       .  A
C1225      C1230   1.410       .  A
C1226      C1227   1.402       .  A
C1226      H1231   1.084       .  S
C1227      C1228   1.409       .  A
C1227      O1232   1.372       .  S
C1228      C1229   1.405       .  A
C1229      C1230   1.403       .  A
C1229      H1233   1.084       .  S
C1230      O1234   1.372       .  S
O1232      H1236   0.992       .  S
O1234      H1235   0.992   1_554  S
C1237      C1238   1.407       .  A
C1237      C1242   1.405       .  A
C1238      C1239   1.401       .  A
C1238      H1243   1.084       .  S
C1239      C1240   1.409       .  A
C1239      O1244   1.372       .  S
C1240      C1241   1.407       .  A
C1241      C1242   1.402       .  A
C1241      H1245   1.084       .  S
C1242      O1246   1.372       .  S
O1244      H1248   0.992       .  S
O1246      H1247   0.992       .  S
C1249      C1250   1.405       .  A
C1249      C1254   1.405       .  A
C1250      C1251   1.400       .  A
C1250      H1255   1.084       .  S
C1251      C1252   1.408       .  A
C1251      O1256   1.371       .  S
C1252      C1253   1.407       .  A
C1253      C1254   1.400       .  A
C1253      H1257   1.084       .  S
C1254      O1258   1.371       .  S
O1256      H1260   0.991       .  S
O1258      H1259   0.992       .  S
C1261      C1262   1.402       .  A
C1261      C1266   1.411       .  A
C1262      C1263   1.404       .  A
C1262      H1267   1.083       .  S
C1263      C1264   1.413       .  A
C1263      O1268   1.371       .  S
C1264      C1265   1.402       .  A
C1265      C1266   1.397       .  A
C1265      H1269   1.084       .  S
C1266      O1270   1.372       .  S
O1268      H1272   0.992       .  S
O1270      H1271   0.992       .  S
C1273      C1274   1.406       .  A
C1273      C1278   1.405       .  A
C1274      C1275   1.399       .  A
C1274      H1279   1.084       .  S
C1275      C1276   1.409       .  A
C1275      O1280   1.371       .  S
C1276      C1277   1.408       .  A
C1277      C1278   1.399       .  A
C1277      H1281   1.083       .  S
C1278      O1282   1.371       .  S
O1280      H1284   0.992       .  S
O1282      H1283   0.992       .  S
C1285      C1286   1.405       .  A
C1285      C1290   1.410       .  A
C1286      C1287   1.399       .  A
C1286      H1291   1.084       .  S
C1287      C1288   1.405   1_655  A
C1287      O1292   1.371   1_655  S
C1288      C1289   1.404   1_455  A
C1289      C1290   1.402       .  A
C1289      H1293   1.084   1_655  S
C1290      O1294   1.372       .  S
O1292      H1296   0.992       .  S
O1294      H1295   0.992       .  S
C1297      C1298   1.407       .  A
C1297      C1302   1.408       .  A
C1298      C1299   1.401       .  A
C1298      H1303   1.084       .  S
C1299      C1300   1.405       .  A
C1299      O1304   1.372       .  S
C1300      C1301   1.405       .  A
C1301      C1302   1.400       .  A
C1301      H1305   1.084       .  S
C1302      O1306   1.372       .  S
O1304      H1308   0.992       .  S
O1306      H1307   0.991       .  S
C1309      C1310   1.401       .  A
C1309      C1314   1.412       .  A
C1310      C1311   1.400       .  A
C1310      H1315   1.084       .  S
C1311      C1312   1.412       .  A
C1311      O1316   1.371       .  S
C1312      C1313   1.401       .  A
C1313      C1314   1.399       .  A
C1313      H1317   1.084       .  S
C1314      O1318   1.373       .  S
O1316      H1320   0.992       .  S
O1318      H1319   0.992       .  S
C1321      C1322   1.406       .  A
C1321      C1326   1.409       .  A
C1322      C1323   1.397       .  A
C1322      H1327   1.084       .  S
C1323      C1324   1.410       .  A
C1323      O1328   1.372       .  S
C1324      C1325   1.407       .  A
C1325      C1326   1.403       .  A
C1325      H1329   1.083       .  S
C1326      O1330   1.371       .  S
O1328      H1332   0.992       .  S
O1330      H1331   0.992       .  S
C1333      C1334   1.402       .  A
C1333      C1338   1.411       .  A
C1334      C1335   1.397       .  A
C1334      H1339   1.084       .  S
C1335      C1336   1.407       .  A
C1335      O1340   1.371       .  S
C1336      C1337   1.404       .  A
C1337      C1338   1.402       .  A
C1337      H1341   1.084       .  S
C1338      O1342   1.372       .  S
O1340      H1344   0.992       .  S
O1342      H1343   0.992       .  S
C1345      C1346   1.402       .  A
C1345      C1350   1.412       .  A
C1346      C1347   1.399       .  A
C1346      H1351   1.084       .  S
C1347      C1348   1.412       .  A
C1347      O1352   1.372       .  S
C1348      C1349   1.402       .  A
C1349      C1350   1.399       .  A
C1349      H1353   1.084       .  S
C1350      O1354   1.371       .  S
O1352      H1356   0.991       .  S
O1354      H1355   0.991       .  S
C1357      C1358   1.408       .  A
C1357      C1362   1.410       .  A
C1358      C1359   1.404       .  A
C1358      H1363   1.083       .  S
C1359      C1360   1.406       .  A
C1359      O1364   1.372       .  S
C1360      C1361   1.405       .  A
C1361      C1362   1.399       .  A
C1361      H1365   1.084       .  S
C1362      O1366   1.371       .  S
O1364      H1368   0.992       .  S
O1366      H1367   0.992       .  S
C1369      C1370   1.407       .  A
C1369      C1374   1.408       .  A
C1370      C1371   1.403       .  A
C1370      H1375   1.084       .  S
C1371      C1372   1.406       .  A
C1371      O1376   1.372       .  S
C1372      C1373   1.405       .  A
C1373      C1374   1.400       .  A
C1373      H1377   1.084       .  S
C1374      O1378   1.371       .  S
O1376      H1380   0.992       .  S
O1378      H1379   0.991       .  S
C1381      C1382   1.405       .  A
C1381      C1386   1.406       .  A
C1382      C1383   1.398       .  A
C1382      H1387   1.084       .  S
C1383      C1384   1.408       .  A
C1383      O1388   1.371       .  S
C1384      C1385   1.408       .  A
C1385      C1386   1.401       .  A
C1385      H1389   1.083       .  S
C1386      O1390   1.372       .  S
O1388      H1392   0.992       .  S
O1390      H1391   0.992       .  S
C1393      C1394   1.404       .  A
C1393      C1398   1.403       .  A
C1394      C1395   1.402       .  A
C1394      H1399   1.084       .  S
C1395      C1396   1.410       .  A
C1395      O1400   1.372       .  S
C1396      C1397   1.408       .  A
C1397      C1398   1.400       .  A
C1397      H1401   1.083       .  S
C1398      O1402   1.371       .  S
O1400      H1404   0.992       .  S
O1402      H1403   0.991       .  S
C1405      C1406   1.402       .  A
C1405      C1410   1.407       .  A
C1406      C1407   1.400   1_565  A
C1406      H1411   1.084       .  S
C1407      C1408   1.410       .  A
C1407      O1412   1.371       .  S
C1408      C1409   1.406       .  A
C1409      C1410   1.401   1_545  A
C1409      H1413   1.084       .  S
C1410      O1414   1.372       .  S
O1412      H1416   0.992       .  S
O1414      H1415   0.992       .  S
C1417      C1418   1.401       .  A
C1417      C1422   1.410       .  A
C1418      C1419   1.401       .  A
C1418      H1423   1.084       .  S
C1419      C1420   1.412       .  A
C1419      O1424   1.371       .  S
C1420      C1421   1.403       .  A
C1421      C1422   1.398       .  A
C1421      H1425   1.084       .  S
C1422      O1426   1.372       .  S
O1424      H1428   0.992       .  S
O1426      H1427   0.991       .  S
C1429      C1430   1.409       .  A
C1429      C1434   1.409       .  A
C1430      C1431   1.403       .  A
C1430      H1435   1.083       .  S
C1431      C1432   1.405       .  A
C1431      O1436   1.371       .  S
C1432      C1433   1.405       .  A
C1433      C1434   1.400       .  A
C1433      H1437   1.084       .  S
C1434      O1438   1.371       .  S
O1436      H1440   0.992       .  S
O1438      H1439   0.992       .  S
C1441      C1442   1.403       .  A
C1441      C1446   1.405       .  A
C1442      C1443   1.395       .  A
C1442      H1447   1.084       .  S
C1443      C1444   1.410       .  A
C1443      O1448   1.371       .  S
C1444      C1445   1.409       .  A
C1445      C1446   1.402       .  A
C1445      H1449   1.083       .  S
C1446      O1450   1.371       .  S
O1448      H1452   0.992       .  S
O1450      H1451   0.991       .  S
C1453      C1454   1.406       .  A
C1453      C1458   1.408       .  A
C1454      C1455   1.400       .  A
C1454      H1459   1.084       .  S
C1455      C1456   1.406       .  A
C1455      O1460   1.371       .  S
C1456      C1457   1.404       .  A
C1457      C1458   1.399       .  A
C1457      H1461   1.084       .  S
C1458      O1462   1.371       .  S
O1460      H1464   0.992       .  S
O1462      H1463   0.992       .  S
C1465      C1466   1.400       .  A
C1465      C1470   1.407       .  A
C1466      C1467   1.401       .  A
C1466      H1471   1.084       .  S
C1467      C1468   1.414       .  A
C1467      O1472   1.371       .  S
C1468      C1469   1.403       .  A
C1469      C1470   1.397       .  A
C1469      H1473   1.083       .  S
C1470      O1474   1.373       .  S
O1472      H1476   0.992       .  S
O1474      H1475   0.992       .  S
C1477      C1478   1.403   1_455  A
C1477      C1482   1.408   1_455  A
C1478      C1479   1.399       .  A
C1478      H1483   1.084   1_655  S
C1479      C1480   1.409       .  A
C1479      O1484   1.372       .  S
C1480      C1481   1.402       .  A
C1481      C1482   1.398       .  A
C1481      H1485   1.084       .  S
C1482      O1486   1.372   1_655  S
O1484      H1488   0.992       .  S
O1486      H1487   0.992       .  S
C1489      C1490   1.403       .  A
C1489      C1494   1.411       .  A
C1490      C1491   1.402       .  A
C1490      H1495   1.084       .  S
C1491      C1492   1.413       .  A
C1491      O1496   1.371       .  S
C1492      C1493   1.403       .  A
C1493      C1494   1.401       .  A
C1493      H1497   1.084       .  S
C1494      O1498   1.371       .  S
O1496      H1500   0.991       .  S
O1498      H1499   0.991       .  S
C1501      C1502   1.404       .  A
C1501      C1506   1.409       .  A
C1502      C1503   1.396       .  A
C1502      H1507   1.084       .  S
C1503      C1504   1.411       .  A
C1503      O1508   1.372       .  S
C1504      C1505   1.405       .  A
C1505      C1506   1.401       .  A
C1505      H1509   1.083       .  S
C1506      O1510   1.372       .  S
O1508      H1512   0.992       .  S
O1510      H1511   0.992       .  S
C1513      C1514   1.400       .  A
C1513      C1518   1.409       .  A
C1514      C1515   1.398       .  A
C1514      H1519   1.084       .  S
C1515      C1516   1.413       .  A
C1515      O1520   1.372       .  S
C1516      C1517   1.406       .  A
C1517      C1518   1.402       .  A
C1517      H1521   1.083       .  S
C1518      O1522   1.372       .  S
O1520      H1524   0.992       .  S
O1522      H1523   0.991       .  S
C1525      C1526   1.406       .  A
C1525      C1530   1.406       .  A
C1526      C1527   1.404       .  A
C1526      H1531   1.084       .  S
C1527      C1528   1.411       .  A
C1527      O1532   1.372       .  S
C1528      C1529   1.407       .  A
C1529      C1530   1.398       .  A
C1529      H1533   1.083       .  S
C1530      O1534   1.372       .  S
O1532      H1536   0.992       .  S
O1534      H1535   0.992       .  S
C1537      C1538   1.406       .  A
C1537      C1542   1.408       .  A
C1538      C1539   1.404   1_565  A
C1538      H1543   1.084       .  S
C1539      C1540   1.409       .  A
C1539      O1544   1.372       .  S
C1540      C1541   1.404       .  A
C1541      C1542   1.398   1_545  A
C1541      H1545   1.084       .  S
C1542      O1546   1.372       .  S
O1544      H1548   0.992       .  S
O1546      H1547   0.992       .  S
C1549      C1550   1.405       .  A
C1549      C1554   1.407       .  A
C1550      C1551   1.399       .  A
C1550      H1555   1.084       .  S
C1551      C1552   1.407       .  A
C1551      O1556   1.371       .  S
C1552      C1553   1.405       .  A
C1553      C1554   1.399       .  A
C1553      H1557   1.084       .  S
C1554      O1558   1.371       .  S
O1556      H1560   0.992       .  S
O1558      H1559   0.991       .  S
C1561      C1562   1.408       .  A
C1561      C1566   1.409       .  A
C1562      C1563   1.403       .  A
C1562      H1567   1.083       .  S
C1563      C1564   1.407       .  A
C1563      O1568   1.371       .  S
C1564      C1565   1.405       .  A
C1565      C1566   1.398       .  A
C1565      H1569   1.084       .  S
C1566      O1570   1.372       .  S
O1568      H1572   0.991       .  S
O1570      H1571   0.992       .  S
C1573      C1574   1.406       .  A
C1573      C1578   1.407       .  A
C1574      C1575   1.400       .  A
C1574      H1579   1.084       .  S
C1575      C1576   1.407       .  A
C1575      O1580   1.371       .  S
C1576      C1577   1.406       .  A
C1577      C1578   1.402       .  A
C1577      H1581   1.084       .  S
C1578      O1582   1.372       .  S
O1580      H1584   0.992       .  S
O1582      H1583   0.992       .  S
C1585      C1586   1.402       .  A
C1585      C1590   1.413       .  A
C1586      C1587   1.398       .  A
C1586      H1591   1.084       .  S
C1587      C1588   1.412       .  A
C1587      O1592   1.373       .  S
C1588      C1589   1.402       .  A
C1589      C1590   1.402       .  A
C1589      H1593   1.083       .  S
C1590      O1594   1.371       .  S
O1592      H1596   0.992       .  S
O1594      H1595   0.992       .  S
C1597      C1598   1.401       .  A
C1597      C1602   1.411       .  A
C1598      C1599   1.402       .  A
C1598      H1603   1.083       .  S
C1599      C1600   1.414       .  A
C1599      O1604   1.372       .  S
C1600      C1601   1.401       .  A
C1601      C1602   1.394       .  A
C1601      H1605   1.084       .  S
C1602      O1606   1.372       .  S
O1604      H1608   0.992       .  S
O1606      H1607   0.991       .  S
C1609      C1610   1.403   1_455  A
C1609      C1614   1.410   1_455  A
C1610      C1611   1.402       .  A
C1610      H1615   1.084   1_655  S
C1611      C1612   1.410       .  A
C1611      O1616   1.371       .  S
C1612      C1613   1.403       .  A
C1613      C1614   1.398       .  A
C1613      H1617   1.084       .  S
C1614      O1618   1.372   1_655  S
O1616      H1620   0.992       .  S
O1618      H1619   0.992       .  S
C1621      C1622   1.405       .  A
C1621      C1626   1.408       .  A
C1622      C1623   1.400       .  A
C1622      H1627   1.084       .  S
C1623      C1624   1.407       .  A
C1623      O1628   1.371       .  S
C1624      C1625   1.406       .  A
C1625      C1626   1.403       .  A
C1625      H1629   1.084       .  S
C1626      O1630   1.372       .  S
O1628      H1632   0.992       .  S
O1630      H1631   0.992       .  S
C1633      C1634   1.403       .  A
C1633      C1638   1.415       .  A
C1634      C1635   1.398       .  A
C1634      H1639   1.083       .  S
C1635      C1636   1.408       .  A
C1635      O1640   1.372       .  S
C1636      C1637   1.401       .  A
C1637      C1638   1.403       .  A
C1637      H1641   1.084       .  S
C1638      O1642   1.371       .  S
O1640      H1644   0.992       .  S
O1642      H1643   0.992       .  S
C1645      C1646   1.402       .  A
C1645      C1650   1.411       .  A
C1646      C1647   1.400       .  A
C1646      H1651   1.084       .  S
C1647      C1648   1.411       .  A
C1647      O1652   1.371       .  S
C1648      C1649   1.403       .  A
C1649      C1650   1.399       .  A
C1649      H1653   1.084       .  S
C1650      O1654   1.371       .  S
O1652      H1656   0.992       .  S
O1654      H1655   0.991       .  S
C1657      C1658   1.404       .  A
C1657      C1662   1.406       .  A
C1658      C1659   1.397       .  A
C1658      H1663   1.084       .  S
C1659      C1660   1.409       .  A
C1659      O1664   1.371       .  S
C1660      C1661   1.408       .  A
C1661      C1662   1.401       .  A
C1661      H1665   1.083       .  S
C1662      O1666   1.371       .  S
O1664      H1668   0.992       .  S
O1666      H1667   0.991       .  S
C1669      C1670   1.402       .  A
C1669      C1674   1.410       .  A
C1670      C1671   1.403       .  A
C1670      H1675   1.084       .  S
C1671      C1672   1.413       .  A
C1671      O1676   1.372       .  S
C1672      C1673   1.402       .  A
C1673      C1674   1.395       .  A
C1673      H1677   1.084       .  S
C1674      O1678   1.372       .  S
O1676      H1680   0.992       .  S
O1678      H1679   0.991       .  S
C1681      C1682   1.402       .  A
C1681      C1686   1.409       .  A
C1682      C1683   1.400       .  A
C1682      H1687   1.084       .  S
C1683      C1684   1.409       .  A
C1683      O1688   1.372       .  S
C1684      C1685   1.404       .  A
C1685      C1686   1.400       .  A
C1685      H1689   1.084       .  S
C1686      O1690   1.372       .  S
O1688      H1692   0.992       .  S
O1690      H1691   0.992       .  S
C1693      C1694   1.402       .  A
C1693      C1698   1.411       .  A
C1694      C1695   1.401       .  A
C1694      H1699   1.084       .  S
C1695      C1696   1.412       .  A
C1695      O1700   1.371       .  S
C1696      C1697   1.402       .  A
C1697      C1698   1.399       .  A
C1697      H1701   1.084       .  S
C1698      O1702   1.372       .  S
O1700      H1704   0.991       .  S
O1702      H1703   0.992       .  S
C1705      C1706   1.403       .  A
C1705      C1710   1.415       .  A
C1706      C1707   1.399       .  A
C1706      H1711   1.083       .  S
C1707      C1708   1.409       .  A
C1707      O1712   1.373       .  S
C1708      C1709   1.401       .  A
C1709      C1710   1.404       .  A
C1709      H1713   1.084       .  S
C1710      O1714   1.371       .  S
O1712      H1716   0.992       .  S
O1714      H1715   0.992       .  S
C1717      C1718   1.409       .  A
C1717      C1722   1.409       .  A
C1718      C1719   1.402       .  A
C1718      H1723   1.083       .  S
C1719      C1720   1.406       .  A
C1719      O1724   1.371       .  S
C1720      C1721   1.404       .  A
C1721      C1722   1.398       .  A
C1721      H1725   1.084       .  S
C1722      O1726   1.372       .  S
O1724      H1728   0.991       .  S
O1726      H1727   0.992       .  S
C1729      C1730   1.402       .  A
C1729      C1734   1.411       .  A
C1730      C1731   1.401       .  A
C1730      H1735   1.084       .  S
C1731      C1732   1.412       .  A
C1731      O1736   1.372       .  S
C1732      C1733   1.402       .  A
C1733      C1734   1.398       .  A
C1733      H1737   1.084       .  S
C1734      O1738   1.371       .  S
O1736      H1740   0.991       .  S
O1738      H1739   0.991       .  S
C1741      C1742   1.409       .  A
C1741      C1746   1.409       .  A
C1742      C1743   1.402       .  A
C1742      H1747   1.083       .  S
C1743      C1744   1.404       .  A
C1743      O1748   1.371       .  S
C1744      C1745   1.404       .  A
C1745      C1746   1.399       .  A
C1745      H1749   1.084       .  S
C1746      O1750   1.372       .  S
O1748      H1752   0.992       .  S
O1750      H1751   0.992       .  S
C1753      C1754   1.402       .  A
C1753      C1758   1.411       .  A
C1754      C1755   1.405       .  A
C1754      H1759   1.083       .  S
C1755      C1756   1.414       .  A
C1755      O1760   1.372       .  S
C1756      C1757   1.402       .  A
C1757      C1758   1.397       .  A
C1757      H1761   1.084       .  S
C1758      O1762   1.372       .  S
O1760      H1764   0.992       .  S
O1762      H1763   0.991       .  S
C1765      C1766   1.402       .  A
C1765      C1770   1.409       .  A
C1766      C1767   1.400       .  A
C1766      H1771   1.084       .  S
C1767      C1768   1.408   1_565  A
C1767      O1772   1.371   1_565  S
C1768      C1769   1.406       .  A
C1769      C1770   1.403   1_545  A
C1769      H1773   1.084       .  S
C1770      O1774   1.372       .  S
O1772      H1776   0.992       .  S
O1774      H1775   0.992       .  S
