geometry optimzed in LAMMPS
_audit_creation_date              2020-12-01 
_audit_creation_method            'lammps2cif' 
_symmetry_space_group_name_H-M    'P1' 
_symmetry_Int_Tables_number       1 
_symmetry_cell_setting            triclinic 
loop_ 
_symmetry_equiv_pos_as_xyz 
  x,y,z 
_cell_length_a                    60.03058968 
_cell_length_b                    60.97357299000037 
_cell_length_c                    60.32990585972655 
_cell_angle_alpha                 89.6689774572725 
_cell_angle_beta                  90.13646019852541 
_cell_angle_gamma                 90.1361390071758 
loop_ 
_atom_site_label 
_atom_site_type_symbol 
_atom_site_fract_x 
_atom_site_fract_y 
_atom_site_fract_z 
_atom_site_charge 
C1          C  0.79355801  0.82780178  0.01989939     0.80000
N2          N  0.80751802  0.84525412  0.01793973    -0.78300
C3          C  0.81783540  0.85001422  0.99848528     0.82500
N4          N  0.81418106  0.83678349  0.98074565    -0.78200
C5          C  0.80013394  0.81927893  0.98238357     0.82600
N6          N  0.78987183  0.81486641  0.00198503    -0.79900
C7          C  0.76288584  0.20860650  0.02810435     0.80000
N8          N  0.75273012  0.21361424  0.00842638    -0.78300
C9          C  0.76194598  0.20671696  0.98898851     0.82500
N10         N  0.78125831  0.19518878  0.98950039    -0.78200
C11         C  0.79156932  0.19038044  0.00890029     0.82600
N12         N  0.78223092  0.19709682  0.02806726    -0.79900
C13         C  0.19884198  0.85949653  0.01820895     0.80000
N14         N  0.20622654  0.84986095  0.99933654    -0.78300
C15         C  0.19728418  0.85536262  0.97930882     0.82500
N16         N  0.18052976  0.87034468  0.97841101    -0.78200
C17         C  0.17305591  0.88005589  0.99713687     0.82600
N18         N  0.18228248  0.87456078  0.01692522    -0.79900
C19         C  0.79699437  0.05201373  0.79491796     0.80000
N20         N  0.78837313  0.03305583  0.78674046    -0.78300
C21         C  0.79544205  0.01341537  0.79492023     0.82500
N22         N  0.81089122  0.01290915  0.81143743    -0.78200
C23         C  0.81940878  0.03174271  0.81981837     0.82600
N24         N  0.81242911  0.05116586  0.81136546    -0.79900
C25         C  0.96211673  0.21719465  0.79625713     0.80000
N26         N  0.98119559  0.21990774  0.78435674    -0.78300
C27         C  0.00079839  0.21168260  0.79205260     0.82500
N28         N  0.00131920  0.20083294  0.81175244    -0.78200
C29         C  0.98259341  0.19821112  0.82405121     0.82600
N30         N  0.96305155  0.20633795  0.81605208    -0.79900
C31         C  0.96243768  0.84958200  0.80099743     0.80000
N32         N  0.96397618  0.86495283  0.81714727    -0.78300
C33         C  0.98340925  0.87561038  0.82117080     0.82500
N34         N  0.00149130  0.87076247  0.80872451    -0.78200
C35         C  0.00039563  0.85546775  0.79247302     0.82600
N36         N  0.98079723  0.84476987  0.78870128    -0.79900
C37         C  0.19228933  0.04598022  0.82284350     0.80000
N38         N  0.17616953  0.04756689  0.83840325    -0.78300
C39         C  0.16537476  0.02958165  0.84590782     0.82500
N40         N  0.17074914  0.00970090  0.83771738    -0.78200
C41         C  0.18698997  0.00767988  0.82226310     0.82600
N42         N  0.19768160  0.02595129  0.81469917    -0.79900
C43         C  0.96655134  0.80957693  0.17466230     0.80000
N44         N  0.96690723  0.82838689  0.16249890    -0.78300
C45         C  0.98638484  0.83748161  0.15572844     0.82500
N46         N  0.00572693  0.82717176  0.16085648    -0.78200
C47         C  0.00578985  0.80826600  0.17291447     0.82600
N48         N  0.98612319  0.79958690  0.18011034    -0.79900
C49         C  0.77696806  0.04734897  0.20036558     0.80000
N50         N  0.79382916  0.04626130  0.18548698    -0.78300
C51         C  0.80138095  0.02679052  0.17792919     0.82500
N52         N  0.79167279  0.00806949  0.18544244    -0.78200
C53         C  0.77460081  0.00864462  0.20026491     0.82600
N54         N  0.76728487  0.02841752  0.20777425    -0.79900
C55         C  0.95964958  0.20178025  0.23198408     0.80000
N56         N  0.97972379  0.21008454  0.23819893    -0.78300
C57         C  0.99857891  0.20409501  0.22731605     0.82500
N58         N  0.99697915  0.19005352  0.20991049    -0.78200
C59         C  0.97696404  0.18186386  0.20339126     0.82600
N60         N  0.95844927  0.18783341  0.21460066    -0.79900
Zr61       Zr  0.25563592  0.30651646  0.27987859     2.17500
O62         O  0.28293239  0.30463138  0.30984549    -0.51500
O63         O  0.25551239  0.34605234  0.27574648    -0.74700
O64         O  0.29314826  0.31376729  0.26680649    -0.81500
O65         O  0.21028740  0.29477291  0.32272236    -0.83200
O66         O  0.29801466  0.29891955  0.23271997    -0.78900
O67         O  0.24245555  0.31396167  0.31716281    -0.90500
O68         O  0.22939628  0.35500707  0.24998626    -0.76500
O69         O  0.25162411  0.31345754  0.24124976    -0.86000
O70         O  0.21716708  0.31462625  0.27463362    -0.85600
O71         O  0.26805404  0.27368441  0.26203707    -0.72400
O72         O  0.23577448  0.27476910  0.29255522    -0.84500
Zr73       Zr  0.20476411  0.25752893  0.22951153     2.26400
Zr74       Zr  0.26314094  0.28052155  0.22308156     2.06300
Zr75       Zr  0.19724737  0.28258176  0.28647859     2.10000
Zr76       Zr  0.21325872  0.32151686  0.23600547     1.78800
O77         O  0.18455663  0.25463279  0.31256058    -0.93300
O78         O  0.22652620  0.34100484  0.20320584    -0.41200
O79         O  0.19235642  0.29011727  0.24774594    -0.77800
O80         O  0.22472921  0.28929358  0.21673900    -0.96500
O81         O  0.24292452  0.24884545  0.23506540    -0.89800
O82         O  0.20855472  0.24992971  0.26799955    -0.92600
C83         C  0.24463567  0.35997487  0.26397144     1.01100
C84         C  0.22655919  0.30677198  0.32947506     1.14100
C85         C  0.30503069  0.30965708  0.24965306     1.04800
O86         O  0.27644757  0.30276338  0.19217222    -0.94800
O87         O  0.25248437  0.26343935  0.18782989    -0.90500
O88         O  0.21792856  0.24918038  0.19282457    -0.83700
C89         C  0.23518860  0.25292766  0.18090712     1.11500
O90         O  0.27156823  0.23868673  0.30582184    -0.96700
Zr91       Zr  0.24701034  0.24230556  0.27376418     1.88900
O92         O  0.20562780  0.21780940  0.23377039    -0.73400
O93         O  0.29100081  0.25199071  0.21811446    -0.52700
O94         O  0.28140761  0.22369919  0.26383514    -0.97300
O95         O  0.23089954  0.22045678  0.30375471    -0.54600
O96         O  0.23464151  0.20897156  0.25634627    -0.73900
C97         C  0.21868026  0.20392975  0.24323234     0.98400
O98         O  0.17927566  0.25661249  0.19790823    -0.62700
O99         O  0.17087515  0.30976088  0.29980588    -0.57500
O100        O  0.16605353  0.25484121  0.24008076    -0.94200
O101        O  0.16074989  0.26970182  0.27408967    -0.92600
O102        O  0.18306296  0.34510673  0.24819847    -0.93000
O103        O  0.18347533  0.32385149  0.20859729    -0.91800
C104        C  0.15367623  0.26016505  0.25645737     1.17300
H105        H  0.21275059  0.32721717  0.28319138     0.33200
H106        H  0.22208956  0.29168570  0.20111765     0.44100
H107        H  0.19919086  0.23775067  0.27234388     0.37600
H108        H  0.28357363  0.27108467  0.26540191     0.34100
H109        H  0.21710845  0.35429537  0.20227359     0.25900
H110        H  0.29930972  0.25649178  0.20467701     0.31800
H111        H  0.27869978  0.21795178  0.24875054     0.37700
H112        H  0.17088235  0.33489720  0.25226072     0.32200
H113        H  0.16275077  0.31469134  0.28639394     0.31000
H114        H  0.17261979  0.26182590  0.32114478     0.32700
H115        H  0.21750839  0.21332525  0.29743106     0.31700
H116        H  0.18461893  0.31013762  0.19997688     0.35700
H117        H  0.16989616  0.24336934  0.19991306     0.28400
H118        H  0.29115453  0.31872330  0.30931506     0.32700
H119        H  0.27482267  0.22281860  0.30718763     0.35500
H120        H  0.15974413  0.30120969  0.30834116     0.28100
H121        H  0.16906596  0.26918334  0.19988251     0.41000
H122        H  0.29017267  0.29533051  0.18714231     0.31000
H123        H  0.24145521  0.34659406  0.20735941     0.38700
H124        H  0.22496946  0.23137058  0.31428602     0.30500
H125        H  0.30171999  0.25405439  0.23042749     0.30600
H126        H  0.29386319  0.29342492  0.30520621     0.30800
C127        C  0.18699774  0.04957147  0.19675971     0.80000
N128        N  0.19871954  0.03125437  0.20208840    -0.78300
C129        C  0.19246713  0.01152202  0.19376266     0.82500
N130        N  0.17418455  0.01009823  0.18054476    -0.78200
C131        C  0.16212303  0.02821541  0.17549221     0.82600
N132        N  0.16880448  0.04787545  0.18348697    -0.79900
Zr133      Zr  0.26107246  0.75645894  0.27365224     2.17500
O134        O  0.29181826  0.73051962  0.27113131    -0.51500
O135        O  0.25626638  0.75198716  0.31337620    -0.74700
O136        O  0.29647451  0.77135367  0.28593384    -0.81500
O137        O  0.22005178  0.71204120  0.25495609    -0.83200
O138        O  0.29914571  0.80740271  0.27690620    -0.78900
O139        O  0.25274842  0.71772560  0.27317423    -0.90500
O140        O  0.22805543  0.77409826  0.32412436    -0.76500
O141        O  0.25220763  0.79200599  0.28685381    -0.86000
O142        O  0.22174404  0.75592424  0.27881255    -0.85600
O143        O  0.27398671  0.78100317  0.24522064    -0.72400
O144        O  0.24552169  0.74773859  0.23801099    -0.84500
Zr145      Zr  0.20892811  0.80809311  0.22803163     2.26400
Zr146      Zr  0.26407295  0.81673108  0.25816085     2.06300
Zr147      Zr  0.20594559  0.74786337  0.24326071     2.10000
Zr148      Zr  0.21286164  0.79168584  0.29142930     1.78800
O149        O  0.19973776  0.72356042  0.21194125    -0.93300
O150        O  0.22079440  0.82257978  0.31566647    -0.41200
O151        O  0.19607238  0.78346288  0.25633392    -0.77800
O152        O  0.22450231  0.81710331  0.26347504    -0.96500
O153        O  0.24810919  0.80887988  0.22275915    -0.89800
O154        O  0.21806449  0.77260328  0.21492165    -0.92600
C155        C  0.24347221  0.76012886  0.32819946     1.01100
C156        C  0.23747279  0.70521970  0.26533894     1.14100
C157        C  0.30719364  0.78957729  0.28517758     1.04800
O158        O  0.26902661  0.84406483  0.28704102    -0.94800
O159        O  0.25028459  0.85210422  0.24477110    -0.90500
O160        O  0.21848346  0.84623866  0.22511700    -0.83700
C161        C  0.23359165  0.85877799  0.23314314     1.11500
O162        O  0.28767670  0.74705968  0.20659116    -0.96700
Zr163      Zr  0.25733344  0.77332684  0.21001585     1.88900
O164        O  0.21352654  0.81332661  0.18830068    -0.73400
O165        O  0.29387189  0.83123640  0.23493927    -0.52700
O166        O  0.29040204  0.79200981  0.19597333    -0.97300
O167        O  0.24974265  0.74675260  0.18089618    -0.54600
O168        O  0.24408892  0.79407449  0.17806199    -0.73900
C169        C  0.22776047  0.80701628  0.17380924     0.98400
O170        O  0.17713998  0.83182513  0.23558162    -0.62700
O171        O  0.17682767  0.72988384  0.26479289    -0.57500
O172        O  0.17415592  0.79384449  0.21441863    -0.94200
O173        O  0.17051549  0.75851960  0.22578421    -0.92600
O174        O  0.18232724  0.77299840  0.31020990    -0.93000
O175        O  0.17967120  0.81408330  0.29617746    -0.91800
C176        C  0.16307166  0.77595808  0.21613778     1.17300
H177        H  0.21737876  0.74492149  0.28957321     0.33200
H178        H  0.21973859  0.83153898  0.26787947     0.44100
H179        H  0.21052120  0.76952207  0.20110779     0.37600
H180        H  0.28993848  0.77985028  0.24359679     0.34100
H181        H  0.21368694  0.81862102  0.32993853     0.25900
H182        H  0.30043024  0.84337188  0.24363717     0.31800
H183        H  0.28531353  0.80696083  0.19199855     0.37700
H184        H  0.17253431  0.76779063  0.29810484     0.32200
H185        H  0.16555132  0.74140960  0.26733399     0.31000
H186        H  0.21377776  0.71522448  0.21044776     0.32700
H187        H  0.23497664  0.75079087  0.17480558     0.31700
H188        H  0.18259295  0.82760231  0.28749007     0.35700
H189        H  0.16676726  0.82262312  0.24438541     0.28400
H190        H  0.29852562  0.72970788  0.28612736     0.32700
H191        H  0.29321653  0.74871116  0.19122455     0.35500
H192        H  0.16962033  0.71970075  0.25422964     0.28100
H193        H  0.18258637  0.84277619  0.24638398     0.41000
H194        H  0.28158316  0.85329341  0.28183331     0.31000
H195        H  0.23698174  0.82164415  0.31869811     0.38700
H196        H  0.24710149  0.73275854  0.18887328     0.30500
H197        H  0.30547833  0.81972487  0.23496176     0.30600
H198        H  0.30320906  0.73770076  0.26169669     0.30800
Zr199      Zr  0.75713344  0.25608705  0.23339211     2.17500
O200        O  0.78517805  0.25842977  0.20426545    -0.51500
O201        O  0.75683149  0.21640338  0.23714080    -0.74700
O202        O  0.79376150  0.24822220  0.24761530    -0.81500
O203        O  0.71131589  0.26357709  0.19021520    -0.83200
O204        O  0.79775391  0.26217560  0.28220409    -0.78900
O205        O  0.74457405  0.24674296  0.19635727    -0.90500
O206        O  0.73040739  0.20707807  0.26236140    -0.76500
O207        O  0.75172995  0.24839662  0.27169794    -0.86000
O208        O  0.71859876  0.24816121  0.23704775    -0.85600
O209        O  0.76955934  0.28844731  0.25243604    -0.72400
O210        O  0.73819691  0.28826627  0.22037018    -0.84500
Zr211      Zr  0.70516773  0.30532556  0.28199405     2.26400
Zr212      Zr  0.76275825  0.28092481  0.29100213     2.06300
Zr213      Zr  0.69943222  0.28035732  0.22483739     2.10000
Zr214      Zr  0.71311550  0.24074565  0.27528607     1.78800
O215        O  0.68977109  0.30565411  0.19496618    -0.93300
O216        O  0.72422668  0.22228347  0.30944825    -0.41200
O217        O  0.69321065  0.27277871  0.26327007    -0.77800
O218        O  0.72379106  0.27298284  0.29540879    -0.96500
O219        O  0.74377599  0.31318503  0.27852885    -0.89800
O220        O  0.71086258  0.31288797  0.24371555    -0.92600
C221        C  0.74582827  0.20223045  0.24852829     1.01100
C222        C  0.72782861  0.25170206  0.18401786     1.14100
C223        C  0.80512256  0.25169684  0.26525650     1.04800
O224        O  0.77006785  0.25704267  0.32266621    -0.94800
O225        O  0.75185661  0.30018857  0.32486656    -0.90500
O226        O  0.71744777  0.31430623  0.31894593    -0.83700
C227        C  0.73457324  0.31095904  0.33118449     1.11500
O228        O  0.77283006  0.32186776  0.20717944    -0.96700
Zr229      Zr  0.74963768  0.32028455  0.24027486     1.88900
O230        O  0.70821042  0.34503391  0.28056788    -0.73400
O231        O  0.79286754  0.30605564  0.30048811    -0.52700
O232        O  0.78463627  0.33567215  0.25376672    -0.97300
O233        O  0.73965335  0.34652786  0.21128426    -0.54600
O234        O  0.73627002  0.35381262  0.25713202    -0.73900
C235        C  0.72095598  0.35903746  0.27088273     0.98400
O236        O  0.67469965  0.30369526  0.30886511    -0.62700
O237        O  0.67098990  0.25351542  0.21516887    -0.57500
O238        O  0.66850152  0.31361145  0.26770819    -0.94200
O239        O  0.66339171  0.29582469  0.23511574    -0.92600
O240        O  0.68275948  0.21875221  0.26014439    -0.93000
O241        O  0.68200371  0.23630960  0.30072230    -0.91800
C242        C  0.65640922  0.30762674  0.25127250     1.17300
H243        H  0.71443033  0.23567956  0.22816737     0.33200
H244        H  0.72039507  0.27065348  0.31090024     0.44100
H245        H  0.70213173  0.32532221  0.23887915     0.37600
H246        H  0.78527200  0.29083143  0.24986221     0.34100
H247        H  0.72025136  0.20669194  0.30713802     0.25900
H248        H  0.80211594  0.29789571  0.31134320     0.31800
H249        H  0.78026759  0.34799874  0.26342364     0.37700
H250        H  0.68915296  0.21081777  0.24738755     0.32200
H251        H  0.66269110  0.25090980  0.22910707     0.31000
H252        H  0.68055868  0.29686914  0.18465420     0.32700
H253        H  0.74799504  0.36007394  0.21493204     0.31700
H254        H  0.67820454  0.25144156  0.30519252     0.35700
H255        H  0.66399439  0.29281841  0.30292610     0.28400
H256        H  0.79258122  0.24393036  0.20420251     0.32700
H257        H  0.78719296  0.32830942  0.21194796     0.35500
H258        H  0.66042233  0.26158589  0.20551426     0.28100
H259        H  0.68079822  0.29633587  0.32221701     0.41000
H260        H  0.78228290  0.26438434  0.33084246     0.31000
H261        H  0.74071370  0.22252219  0.30919889     0.38700
H262        H  0.72385680  0.35024300  0.21402109     0.30500
H263        H  0.80218706  0.30697389  0.28700049     0.30600
H264        H  0.79662412  0.26875452  0.20984356     0.30800
Zr265      Zr  0.71217901  0.75103225  0.27910218     2.17500
O266        O  0.68380399  0.72232609  0.27932400    -0.51500
O267        O  0.71391719  0.75150299  0.31914297    -0.74700
O268        O  0.72817530  0.71473601  0.28409229    -0.81500
O269        O  0.66851541  0.79666788  0.27588909    -0.83200
O270        O  0.76097485  0.71151081  0.26559745    -0.78900
O271        O  0.67367746  0.76109050  0.28583384    -0.90500
O272        O  0.73918892  0.77710722  0.32950136    -0.76500
O273        O  0.75099549  0.75567364  0.28559954    -0.86000
O274        O  0.71636342  0.78836915  0.28980857    -0.85600
O275        O  0.72976912  0.74178028  0.24469545    -0.72400
O276        O  0.69788565  0.77228596  0.24877602    -0.84500
Zr277      Zr  0.75946460  0.80614432  0.23129917     2.26400
Zr278      Zr  0.76889209  0.74784100  0.25100903     2.06300
Zr279      Zr  0.70307202  0.80978297  0.25918972     2.10000
Zr280      Zr  0.75517635  0.79297065  0.29605788     1.78800
O281        O  0.67329629  0.81949612  0.23352546    -0.93300
O282        O  0.78647229  0.77704653  0.31628487    -0.41200
O283        O  0.74205302  0.81524228  0.26580766    -0.77800
O284        O  0.77381141  0.78518857  0.26193458    -0.96500
O285        O  0.75507144  0.76901768  0.22055899    -0.89800
O286        O  0.72069505  0.80142610  0.22477015    -0.92600
C287        C  0.72441783  0.76246968  0.33391111     1.01100
C288        C  0.66148998  0.77830410  0.28381499     1.14100
C289        C  0.74518674  0.70378728  0.27761172     1.04800
O290        O  0.80007755  0.73859892  0.27515971    -0.94800
O291        O  0.80301744  0.76020500  0.23265820    -0.90500
O292        O  0.79704007  0.79544285  0.22214204    -0.83700
C293        C  0.80945177  0.77843230  0.22387933     1.11500
O294        O  0.68748351  0.73579485  0.21151463    -0.96700
Zr295      Zr  0.71623866  0.76395798  0.21470887     1.88900
O296        O  0.75694147  0.80517917  0.19100810    -0.73400
O297        O  0.77847631  0.72104890  0.22279375    -0.52700
O298        O  0.73013473  0.73396450  0.19213975    -0.97300
O299        O  0.68302270  0.77717527  0.19554286    -0.54600
O300        O  0.73049245  0.78047313  0.18102141    -0.73900
C301        C  0.74555630  0.79469678  0.17639576     0.98400
O302        O  0.78859861  0.83401740  0.23349333    -0.62700
O303        O  0.69181697  0.83741548  0.28594628    -0.57500
O304        O  0.74507715  0.84301136  0.22672841    -0.94200
O305        O  0.71324329  0.84661385  0.24666705    -0.92600
O306        O  0.74460637  0.82493750  0.31761153    -0.93000
O307        O  0.78579512  0.81876308  0.30114600    -0.91800
C308        C  0.72889381  0.85437248  0.23438787     1.17300
H309        H  0.70776437  0.79172954  0.30288372     0.33200
H310        H  0.78946193  0.78827266  0.26404754     0.44100
H311        H  0.71551264  0.81109051  0.21312768     0.37600
H312        H  0.72697493  0.72660011  0.24115319     0.34100
H313        H  0.78122692  0.76238258  0.32113909     0.25900
H314        H  0.78884243  0.71075955  0.23025937     0.31800
H315        H  0.72238709  0.73555970  0.17771431     0.37700
H316        H  0.74786564  0.82084535  0.33319109     0.32200
H317        H  0.67586719  0.84013691  0.28275812     0.31000
H318        H  0.66893036  0.83453990  0.23778082     0.32700
H319        H  0.68691593  0.79204577  0.19012320     0.31700
H320        H  0.78894829  0.82449254  0.28608502     0.35700
H321        H  0.78717227  0.84298088  0.21982579     0.28400
H322        H  0.68670245  0.71334834  0.29275427     0.32700
H323        H  0.68479821  0.73396840  0.19542906     0.35500
H324        H  0.69189848  0.82978320  0.30046996     0.28100
H325        H  0.78411102  0.84384794  0.24569786     0.41000
H326        H  0.80994768  0.72942188  0.26593758     0.31000
H327        H  0.79777102  0.77395462  0.30480068     0.38700
H328        H  0.67204292  0.77970202  0.20747706     0.30500
H329        H  0.76469044  0.71241450  0.22045384     0.30600
H330        H  0.68752074  0.71270268  0.26670312     0.30800
C331        C  0.20015379  0.20872416  0.02465921     0.80000
N332        N  0.18111365  0.19668796  0.02445660    -0.78300
C333        C  0.17062035  0.19169392  0.00520339     0.82500
N334        N  0.17967778  0.19877129  0.98581958    -0.78200
C335        C  0.19871531  0.21100906  0.98559680     0.82600
N336        N  0.20882312  0.21617080  0.00516283    -0.79900
Zr337      Zr  0.20663947  0.25073774  0.77863839     2.17500
O338        O  0.17972002  0.24631033  0.80862757    -0.51500
O339        O  0.21150641  0.21132955  0.77875935    -0.74700
O340        O  0.16947321  0.24184861  0.76549679    -0.81500
O341        O  0.25244116  0.26421809  0.82140629    -0.83200
O342        O  0.16446355  0.25278376  0.72985593    -0.78900
O343        O  0.21743392  0.25045957  0.81735856    -0.90500
O344        O  0.23884054  0.20231819  0.75464029    -0.76500
O345        O  0.21194905  0.24139423  0.74079138    -0.86000
O346        O  0.24559146  0.24460901  0.77497275    -0.85600
O347        O  0.19228562  0.28138684  0.75794611    -0.72400
O348        O  0.22430309  0.28425301  0.78961784    -0.84500
Zr349      Zr  0.25511500  0.30023746  0.72640403     2.26400
Zr350      Zr  0.19876845  0.27229530  0.71974675     2.06300
Zr351      Zr  0.26354031  0.27827294  0.78490249     2.10000
Zr352      Zr  0.25098764  0.23595932  0.73700283     1.78800
O353        O  0.27306659  0.30775591  0.81029463    -0.93300
O354        O  0.23903711  0.21154680  0.70741383    -0.41200
O355        O  0.26931138  0.26941348  0.74680397    -0.77800
O356        O  0.23798429  0.26642174  0.71526316    -0.96500
O357        O  0.21620638  0.30600982  0.73019944    -0.89800
O358        O  0.24994208  0.30911236  0.76439764    -0.92600
C359        C  0.22398484  0.19736713  0.76901520     1.01100
C360        C  0.23452150  0.25543924  0.82915613     1.14100
C361        C  0.15761154  0.24357514  0.74786371     1.04800
O362        O  0.19199438  0.24624095  0.69001491    -0.94800
O363        O  0.20849650  0.28962902  0.68414489    -0.90500
O364        O  0.24070305  0.30855212  0.68978357    -0.83700
C365        C  0.22432705  0.30240821  0.67756684     1.11500
O366        O  0.17965584  0.31585149  0.79389556    -0.96700
Zr367      Zr  0.21086600  0.31460723  0.76819796     1.88900
O368        O  0.25223218  0.33990540  0.72834766    -0.73400
O369        O  0.16764132  0.29621549  0.71040448    -0.52700
O370        O  0.18021616  0.33566774  0.75236024    -0.97300
O371        O  0.21959580  0.33594182  0.80112083    -0.54600
O372        O  0.22596575  0.34856618  0.75377005    -0.73900
C373        C  0.24082470  0.35381446  0.73948346     0.98400
O374        O  0.28359999  0.29746517  0.69764760    -0.62700
O375        O  0.29220827  0.25375020  0.79917686    -0.57500
O376        O  0.29245723  0.30952991  0.73813711    -0.94200
O377        O  0.29948632  0.29243268  0.77099668    -0.92600
O378        O  0.28542808  0.21955848  0.75057747    -0.93000
O379        O  0.27847276  0.23255803  0.70764702    -0.91800
C380        C  0.30555609  0.30390360  0.75398344     1.17300
H381        H  0.25056938  0.23292728  0.78465155     0.33200
H382        H  0.24130996  0.26361884  0.69987605     0.44100
H383        H  0.25827597  0.32206571  0.76846833     0.37600
H384        H  0.17656552  0.28323861  0.76063468     0.34100
H385        H  0.24625375  0.19732678  0.71082395     0.25900
H386        H  0.15836541  0.28755384  0.70004532     0.31800
H387        H  0.18183293  0.33414078  0.73611637     0.37700
H388        H  0.28174740  0.21348814  0.76538157     0.32200
H389        H  0.30070123  0.24920290  0.78593568     0.31000
H390        H  0.25931768  0.31017415  0.81896891     0.32700
H391        H  0.21126056  0.34981305  0.79911232     0.31700
H392        H  0.28350043  0.24777139  0.70473828     0.35700
H393        H  0.29506775  0.28744801  0.70375602     0.28400
H394        H  0.17431030  0.23099613  0.80761477     0.32700
H395        H  0.17991407  0.30143418  0.80153523     0.35500
H396        H  0.30254998  0.26339659  0.80744451     0.28100
H397        H  0.27673841  0.28883850  0.68556340     0.41000
H398        H  0.20666313  0.24430737  0.68281747     0.31000
H399        H  0.22300304  0.20892103  0.71021432     0.38700
H400        H  0.23540898  0.34022220  0.79934408     0.30500
H401        H  0.15867049  0.29705759  0.72412440     0.30600
H402        H  0.16675115  0.25556555  0.80468562     0.30800
Zr403      Zr  0.20247645  0.79969958  0.77995800     2.17500
O404        O  0.17042548  0.79865024  0.80468714    -0.51500
O405        O  0.20812282  0.83858109  0.78500204    -0.74700
O406        O  0.21383226  0.80053758  0.81837981    -0.81500
O407        O  0.16062479  0.80033413  0.73186793    -0.83200
O408        O  0.24989004  0.78949174  0.82091789    -0.78900
O409        O  0.16597753  0.81090950  0.76749313    -0.90500
O410        O  0.23284536  0.85030610  0.75912396    -0.76500
O411        O  0.24114511  0.80754910  0.77672837    -0.86000
O412        O  0.20771006  0.81186944  0.74278013    -0.85600
O413        O  0.22043050  0.76569552  0.78919474    -0.72400
O414        O  0.18909627  0.77027625  0.75739864    -0.84500
Zr415      Zr  0.25232184  0.75585208  0.72498542     2.26400
Zr416      Zr  0.25942835  0.77367196  0.78498987     2.06300
Zr417      Zr  0.19502751  0.78227623  0.72002313     2.10000
Zr418      Zr  0.24653849  0.81878120  0.73934840     1.78800
O419        O  0.16368640  0.75871841  0.71049131    -0.93300
O420        O  0.27993151  0.83617930  0.75431083    -0.41200
O421        O  0.23404059  0.78961719  0.71597306    -0.77800
O422        O  0.26578456  0.78534610  0.74748652    -0.96500
O423        O  0.24702331  0.74400648  0.76222753    -0.89800
O424        O  0.21356860  0.74847396  0.72809403    -0.92600
C425        C  0.21948618  0.85357851  0.77527806     1.01100
C426        C  0.15407770  0.80951341  0.74988639     1.14100
C427        C  0.23182368  0.79706852  0.82929701     1.04800
O428        O  0.29095149  0.79691667  0.79479652    -0.94800
O429        O  0.29318075  0.75431711  0.77399808    -0.90500
O430        O  0.28822085  0.74368870  0.73836587    -0.83700
C431        C  0.29985984  0.74493177  0.75615817     1.11500
O432        O  0.17752073  0.73175152  0.79118883    -0.96700
Zr433      Zr  0.20826300  0.73672676  0.76534305     1.88900
O434        O  0.24941681  0.71622603  0.72263669    -0.73400
O435        O  0.26796604  0.74678958  0.81379335    -0.52700
O436        O  0.21743373  0.71311059  0.79672555    -0.97300
O437        O  0.17744748  0.71708745  0.74793982    -0.54600
O438        O  0.22513980  0.70455313  0.74891746    -0.73900
C439        C  0.23914377  0.70100245  0.73330390     0.98400
O440        O  0.28188187  0.76186561  0.69780197    -0.62700
O441        O  0.18735408  0.80979482  0.69160711    -0.57500
O442        O  0.23996011  0.75351703  0.68679913    -0.94200
O443        O  0.20519148  0.76810594  0.68346425    -0.92600
O444        O  0.23444366  0.84462372  0.71083571    -0.93000
O445        O  0.27414013  0.82501547  0.71045425    -0.91800
C446        C  0.22267424  0.75888589  0.67544842     1.17300
H447        H  0.19932780  0.82507105  0.73977483     0.33200
H448        H  0.28152811  0.78747803  0.74493399     0.44100
H449        H  0.20907728  0.73727825  0.71773328     0.37600
H450        H  0.21721545  0.76139202  0.80428914     0.34100
H451        H  0.27527863  0.84249621  0.76865039     0.25900
H452        H  0.27736337  0.75474880  0.82461792     0.31800
H453        H  0.23389136  0.71358416  0.79767817     0.37700
H454        H  0.23986921  0.85910423  0.71591885     0.32200
H455        H  0.17150431  0.80754169  0.68763659     0.31000
H456        H  0.15639786  0.76621396  0.69781785     0.32700
H457        H  0.17675010  0.70287010  0.75592586     0.31700
H458        H  0.27098799  0.81362618  0.69923972     0.35700
H459        H  0.27631575  0.77360005  0.68783588     0.28400
H460        H  0.17244930  0.81107973  0.81500504     0.32700
H461        H  0.16557973  0.74147519  0.78552440     0.35500
H462        H  0.18762974  0.82397627  0.69951123     0.28100
H463        H  0.29413773  0.76908903  0.70601996     0.41000
H464        H  0.29810302  0.78933937  0.80749960     0.31000
H465        H  0.28994432  0.82395956  0.75847282     0.38700
H466        H  0.18267270  0.71320759  0.73292296     0.30500
H467        H  0.25368663  0.74428635  0.82159449     0.30600
H468        H  0.17243301  0.78529644  0.81387196     0.30800
Zr469      Zr  0.75978246  0.26167871  0.78202794     2.17500
O470        O  0.78931779  0.26776759  0.80916288    -0.51500
O471        O  0.76130145  0.22207455  0.77882271    -0.74700
O472        O  0.74810528  0.25090008  0.81901942    -0.81500
O473        O  0.80028741  0.27305249  0.73436489    -0.83200
O474        O  0.71380868  0.26518888  0.82534853    -0.78900
O475        O  0.79677583  0.25552160  0.76765444    -0.90500
O476        O  0.73595286  0.21211595  0.75280497    -0.76500
O477        O  0.72179665  0.25135031  0.77836128    -0.86000
O478        O  0.75451999  0.25458376  0.74363027    -0.85600
O479        O  0.73889574  0.29246873  0.79524378    -0.72400
O480        O  0.76980000  0.29491502  0.76307656    -0.84500
Zr481      Zr  0.70431373  0.30866309  0.73368759     2.26400
Zr482      Zr  0.70059954  0.28210280  0.79073465     2.06300
Zr483      Zr  0.76355486  0.28781613  0.72460954     2.10000
Zr484      Zr  0.71647291  0.24464929  0.73998222     1.78800
O485        O  0.79107255  0.31591379  0.71568482    -0.93300
O486        O  0.68667542  0.22269316  0.75627076    -0.41200
O487        O  0.72511793  0.27786657  0.72025473    -0.77800
O488        O  0.69451193  0.27501836  0.75213623    -0.96500
O489        O  0.70989368  0.31559056  0.77201405    -0.89800
O490        O  0.74253433  0.31854346  0.73711512    -0.92600
C491        C  0.75139410  0.20767659  0.76686300     1.01100
C492        C  0.80803804  0.26153335  0.75060356     1.14100
C493        C  0.73133677  0.25465181  0.83163438     1.04800
O494        O  0.67422579  0.25313754  0.80009510    -0.94800
O495        O  0.66356225  0.29619276  0.78052815    -0.90500
O496        O  0.66778304  0.31637130  0.74891193    -0.83700
C497        C  0.65606383  0.30885998  0.76504271     1.11500
O498        O  0.77446259  0.32835196  0.80608551    -0.96700
Zr499      Zr  0.74812884  0.32538975  0.77538883     1.88900
O500        O  0.70458161  0.34849958  0.73553132    -0.73400
O501        O  0.68986027  0.30624119  0.82089695    -0.52700
O502        O  0.73452205  0.34874200  0.80502605    -0.97300
O503        O  0.78057705  0.34555889  0.76189075    -0.54600
O504        O  0.73135521  0.35826125  0.76008500    -0.73900
C505        C  0.71586509  0.36295130  0.74620995     0.98400
O506        O  0.67381158  0.30375361  0.70726345    -0.62700
O507        O  0.77409486  0.26352277  0.69450097    -0.57500
O508        O  0.71550537  0.31795082  0.69625283    -0.94200
O509        O  0.75018244  0.30456218  0.69019214    -0.92600
O510        O  0.72753532  0.22505237  0.70671996    -0.93000
O511        O  0.68773353  0.23802233  0.71225752    -0.91800
C512        C  0.73246172  0.31464890  0.68381312     1.17300
H513        H  0.76410892  0.24293796  0.73857726     0.33200
H514        H  0.67900761  0.27155467  0.74944281     0.44100
H515        H  0.74605026  0.33132138  0.72826085     0.37600
H516        H  0.74212534  0.29486590  0.81073909     0.34100
H517        H  0.68726795  0.20856037  0.74829463     0.25900
H518        H  0.69003543  0.32114627  0.81429114     0.31800
H519        H  0.74254770  0.36283433  0.80308051     0.37700
H520        H  0.74373195  0.22252479  0.70844298     0.32200
H521        H  0.75978439  0.25895055  0.68774265     0.31000
H522        H  0.79168101  0.31636331  0.69929430     0.32700
H523        H  0.77572025  0.35250726  0.74782437     0.31700
H524        H  0.67977809  0.25216145  0.71082985     0.35700
H525        H  0.68024683  0.29545619  0.69476975     0.28400
H526        H  0.79202129  0.25328236  0.81615697     0.32700
H527        H  0.78090823  0.34327870  0.80498618     0.35500
H528        H  0.78107014  0.27322069  0.68325901     0.28100
H529        H  0.66356668  0.29308244  0.71435709     0.41000
H530        H  0.66914466  0.25668399  0.81525392     0.31000
H531        H  0.69191901  0.21908623  0.77142850     0.38700
H532        H  0.79130520  0.33413687  0.75735279     0.30500
H533        H  0.67390176  0.30304612  0.82351483     0.30600
H534        H  0.78251750  0.27677033  0.82095506     0.30800
Zr535      Zr  0.74882366  0.81018889  0.78331370     2.17500
O536        O  0.74653373  0.83761201  0.81254314    -0.51500
O537        O  0.78928164  0.81162428  0.78130613    -0.74700
O538        O  0.75857524  0.79555733  0.81929699    -0.81500
O539        O  0.73559514  0.85452100  0.73979899    -0.83200
O540        O  0.74711685  0.76022304  0.82239642    -0.78900
O541        O  0.75139597  0.84835270  0.77344283    -0.90500
O542        O  0.80040016  0.78689121  0.75573319    -0.76500
O543        O  0.75989665  0.77346862  0.77676012    -0.86000
O544        O  0.75697278  0.80879152  0.74479005    -0.85600
O545        O  0.71748690  0.78847618  0.79483311    -0.72400
O546        O  0.71512153  0.82098437  0.76493952    -0.84500
Zr547      Zr  0.70275216  0.75993481  0.72997301     2.26400
Zr548      Zr  0.72858288  0.75141617  0.78717680     2.06300
Zr549      Zr  0.72321084  0.81879045  0.72613325     2.10000
Zr550      Zr  0.76739460  0.77184434  0.73814465     1.78800
O551        O  0.69221272  0.84299800  0.71721710    -0.93300
O552        O  0.78991644  0.73992314  0.74752237    -0.41200
O553        O  0.73404969  0.78179001  0.71870351    -0.77800
O554        O  0.73647171  0.74897347  0.74831324    -0.96500
O555        O  0.69479622  0.76147270  0.76848423    -0.89800
O556        O  0.69186892  0.79676254  0.73651472    -0.92600
C557        C  0.80444171  0.80131887  0.77060258     1.01100
C558        C  0.74555374  0.86107341  0.75749061     1.14100
C559        C  0.75677489  0.77748011  0.83005679     1.04800
O560        O  0.75717584  0.72321906  0.78972810    -0.94800
O561        O  0.71115162  0.71687192  0.77594148    -0.90500
O562        O  0.69548748  0.72278940  0.74213964    -0.83700
C563        C  0.70002010  0.71050263  0.75885787     1.11500
O564        O  0.67650305  0.82657078  0.80247354    -0.96700
Zr565      Zr  0.68411139  0.79827562  0.77512453     1.88900
O566        O  0.66241672  0.75863981  0.73170141    -0.73400
O567        O  0.70622052  0.73737076  0.81779343    -0.52700
O568        O  0.66745657  0.78235972  0.80838291    -0.97300
O569        O  0.65874350  0.82691740  0.76226805    -0.54600
O570        O  0.65157865  0.77946457  0.76067977    -0.73900
C571        C  0.64744719  0.76643267  0.74459110     0.98400
O572        O  0.70746828  0.73331882  0.70019730    -0.62700
O573        O  0.74774198  0.83649972  0.69931703    -0.57500
O574        O  0.69416105  0.77408163  0.69341981    -0.94200
O575        O  0.71198763  0.80678378  0.68903833    -0.92600
O576        O  0.78805392  0.78976578  0.70840119    -0.93000
O577        O  0.77332778  0.74698778  0.70724860    -0.91800
C578        C  0.70066621  0.79043485  0.68162366     1.17300
H579        H  0.76885252  0.81879788  0.74089711     0.33200
H580        H  0.73994919  0.73400162  0.74456544     0.44100
H581        H  0.67893910  0.80060967  0.72774213     0.37600
H582        H  0.71491886  0.79028536  0.81052429     0.34100
H583        H  0.80451076  0.74276046  0.74042683     0.25900
H584        H  0.71601891  0.72673870  0.82552448     0.31800
H585        H  0.65395577  0.77451987  0.80325516     0.37700
H586        H  0.77780673  0.78964869  0.69551849     0.32200
H587        H  0.75503904  0.82426976  0.69145255     0.31000
H588        H  0.69723933  0.85138875  0.70404632     0.32700
H589        H  0.65105602  0.82086238  0.74911243     0.31700
H590        H  0.76007159  0.73730116  0.70720846     0.35700
H591        H  0.71776927  0.74036925  0.68950627     0.28400
H592        H  0.76136812  0.83778908  0.81976311     0.32700
H593        H  0.66046325  0.82511364  0.80603445     0.35500
H594        H  0.73766207  0.84315468  0.68815499     0.28100
H595        H  0.71644243  0.72124633  0.70662398     0.41000
H596        H  0.76358945  0.72462562  0.80478070     0.31000
H597        H  0.79291432  0.74132095  0.76359484     0.38700
H598        H  0.66858263  0.83853639  0.75622712     0.30500
H599        H  0.70479626  0.74978120  0.82820460     0.30600
H600        H  0.73628310  0.83141202  0.82380151     0.30800
C601        C  0.49205362  0.71291871  0.71227360     0.80000
N602        N  0.47367016  0.71606230  0.72498065    -0.78300
C603        C  0.45465933  0.70464645  0.72071826     0.82500
N604        N  0.45426335  0.68995968  0.70386919    -0.78200
C605        C  0.47251677  0.68665642  0.69113964     0.82600
N606        N  0.49130868  0.69828597  0.69543086    -0.79900
C607        C  0.28340264  0.50798697  0.70066215     0.80000
N608        N  0.27349419  0.52736576  0.70575148    -0.78300
C609        C  0.27879876  0.54583927  0.69408354     0.82500
N610        N  0.29381397  0.54471444  0.67736996    -0.78200
C611        C  0.30366789  0.52549644  0.67212154     0.82600
N612        N  0.29833751  0.50727084  0.68386089    -0.79900
C613        C  0.50254709  0.34257282  0.70877271     0.80000
N614        N  0.50291660  0.35477779  0.68991216    -0.78300
C615        C  0.48396806  0.36075343  0.67928933     0.82500
N616        N  0.46409703  0.35436069  0.68791750    -0.78200
C617        C  0.46304406  0.34225858  0.70694688     0.82600
N618        N  0.48242181  0.33643290  0.71739272    -0.79900
C619        C  0.67147690  0.51840327  0.71149398     0.80000
N620        N  0.65745788  0.51876809  0.69384042    -0.78300
C621        C  0.64682305  0.53742388  0.68769716     0.82500
N622        N  0.65048402  0.55600461  0.69948058    -0.78200
C623        C  0.66463508  0.55598296  0.71710896     0.82600
N624        N  0.67508831  0.53708422  0.72319127    -0.79900
C625        C  0.49967794  0.35196125  0.28539728     0.80000
N626        N  0.49972666  0.36504427  0.30360713    -0.78300
C627        C  0.48070276  0.37460145  0.31088217     0.82500
N628        N  0.46146308  0.37069208  0.29969807    -0.78200
C629        C  0.46096712  0.35766470  0.28147027     0.82600
N630        N  0.48021355  0.34825288  0.27437702    -0.79900
C631        C  0.69076914  0.51529617  0.31353700     0.80000
N632        N  0.70143007  0.53419532  0.30789824    -0.78300
C633        C  0.69400067  0.55371342  0.31580381     0.82500
N634        N  0.67572931  0.55402632  0.32911535    -0.78200
C635        C  0.66495827  0.53523478  0.33479033     0.82600
N636        N  0.67274856  0.51593416  0.32701708    -0.79900
C637        C  0.50248561  0.75016496  0.33073783     0.80000
N638        N  0.48375922  0.76105333  0.32412078    -0.78300
C639        C  0.46338899  0.75429579  0.33143518     0.82500
N640        N  0.46188771  0.73634628  0.34483322    -0.78200
C641        C  0.48031321  0.72511536  0.35122549     0.82600
N642        N  0.50054778  0.73231799  0.34423566    -0.79900
C643        C  0.27812903  0.51376718  0.30977314     0.80000
N644        N  0.29516580  0.51419934  0.32451807    -0.78300
C645        C  0.30316551  0.53329109  0.33255183     0.82500
N646        N  0.29375833  0.55232836  0.32562617    -0.78200
C647        C  0.27650229  0.55237646  0.31095442     0.82600
N648        N  0.26882895  0.53295553  0.30287502    -0.79900
C649        C  0.66592737  0.74109804  0.48827461     0.80000
N650        N  0.65077085  0.72460321  0.48849785    -0.78300
C651        C  0.64278868  0.71642204  0.50783032     0.82500
N652        N  0.65006451  0.72519039  0.52717364    -0.78200
C653        C  0.66514426  0.74189162  0.52731177     0.82600
N654        N  0.67319580  0.74970171  0.50773261    -0.79900
C655        C  0.70514118  0.35892239  0.48709738     0.80000
N656        N  0.71373062  0.35267903  0.50706941    -0.78300
C657        C  0.70396938  0.35968172  0.52613065     0.82500
N658        N  0.68539091  0.37236013  0.52506084    -0.78200
C659        C  0.67644528  0.37826899  0.50523362     0.82600
N660        N  0.68661026  0.37161884  0.48642671    -0.79900
C661        C  0.26539318  0.70679563  0.48493867     0.80000
N662        N  0.28177617  0.69166231  0.48661719    -0.78300
C663        C  0.28869459  0.68385935  0.50652347     0.82500
N664        N  0.27870016  0.69142811  0.52522958    -0.78200
C665        C  0.26221205  0.70677527  0.52390685     0.82600
N666        N  0.25572964  0.71450773  0.50367180    -0.79900
C667        C  0.27341176  0.34449230  0.48481333     0.80000
N668        N  0.26333655  0.33885929  0.50428168    -0.78300
C669        C  0.27291417  0.34414692  0.52406991     0.82500
N670        N  0.29266284  0.35517239  0.52416964    -0.78200
C671        C  0.30290545  0.36101756  0.50498787     0.82600
N672        N  0.29309234  0.35557896  0.48547827    -0.79900
O673        O  0.92107311  0.99462175  0.00255057    -0.86700
O674        O  0.04664422  0.00329325  0.00692805    -0.86800
O675        O  0.98603267  0.97554207  0.96663320    -0.88500
O676        O  0.98483421  0.96954576  0.03890796    -0.87300
O677        O  0.98219763  0.99321501  0.06818221    -0.86900
O678        O  0.98480393  0.00453799  0.94240624    -0.88200
O679        O  0.02219256  0.97458068  0.00392192    -0.86700
O680        O  0.94958210  0.96977820  0.00104782    -0.86300
Zr681      Zr  0.98446223  0.99001335  0.00425344     2.84300
O682        O  0.00472601  0.01141084  0.02915143    -1.08300
O683        O  0.96117893  0.01261202  0.98307507    -1.09000
C684        C  0.92870613  0.97487544  0.00080308     1.06400
C685        C  0.04211685  0.98275209  0.00480676     1.06400
C686        C  0.98583462  0.98385823  0.94685109     1.09400
C687        C  0.98363014  0.97378181  0.05981244     1.07100
H688        H  0.01593924  0.00755692  0.97481786     0.32700
O689        O  0.00588583  0.01527974  0.98443536    -1.29200
H690        H  0.95074480  0.99826743  0.03574653     0.32400
O691        O  0.95973962  0.00864765  0.02756831    -1.30900
O692        O  0.04256023  0.07295870  0.01207628    -0.86700
O693        O  0.91669075  0.06608526  0.00823985    -0.88200
O694        O  0.01895382  0.04071971  0.94644776    -0.86700
O695        O  0.01640475  0.02912380  0.07117468    -0.86800
O696        O  0.94351126  0.02743272  0.06912144    -0.86500
O697        O  0.94774761  0.03588383  0.94380732    -0.86300
O698        O  0.98004761  0.09987935  0.97605117    -0.86700
O699        O  0.97564056  0.09289687  0.04876261    -0.86100
O700        O  0.98208182  0.07484496  0.94800071    -0.87200
O701        O  0.97657657  0.06393277  0.07318433    -0.86400
O702        O  0.04489758  0.04019089  0.97422961    -0.86800
O703        O  0.91970864  0.03127733  0.96902518    -0.86500
O704        O  0.91724993  0.02847007  0.04150199    -0.86100
O705        O  0.04349222  0.03326977  0.04489698    -0.86500
O706        O  0.01485657  0.09881109  0.01251857    -0.86800
O707        O  0.94185975  0.09426585  0.01106934    -0.88200
Zr708      Zr  0.02569619  0.03699363  0.00928548     2.83100
Zr709      Zr  0.93673736  0.03145020  0.00607560     2.83500
Zr710      Zr  0.98266984  0.03809167  0.96363750     2.84100
Zr711      Zr  0.98032988  0.03019416  0.05229195     2.83400
Zr712      Zr  0.97917281  0.07879982  0.01101080     2.84200
O713        O  0.95765651  0.05292024  0.03052201    -1.08700
O714        O  0.00336483  0.05990825  0.98774788    -1.08200
C715        C  0.03559349  0.09292191  0.01276018     1.06400
C716        C  0.92179306  0.08661494  0.00998032     1.09000
C717        C  0.03917773  0.04091686  0.95362691     1.06600
C718        C  0.03700006  0.03020497  0.06497708     1.06900
C719        C  0.92313661  0.02750389  0.06212370     1.06500
C720        C  0.92711986  0.03299553  0.94894561     1.06100
C721        C  0.98133177  0.09470239  0.95527979     1.06500
C722        C  0.97498735  0.08458593  0.06854766     1.06000
H723        H  0.94862705  0.06638172  0.97733933     0.32700
O724        O  0.95815149  0.05722423  0.98636953    -1.29800
H725        H  0.01059178  0.06477376  0.04317322     0.32700
O726        O  0.00198943  0.05608338  0.03292862    -1.31200
O727        O  0.47645315  0.58989862  0.54190787    -0.86700
O728        O  0.48778341  0.46597831  0.53439601    -0.86800
O729        O  0.44522130  0.52352343  0.56393628    -0.88500
O730        O  0.51731323  0.52933328  0.56570999    -0.87300
O731        O  0.54479350  0.53314232  0.53973461    -0.86900
O732        O  0.41889068  0.52353602  0.53641835    -0.88200
O733        O  0.48614446  0.49080650  0.56282195    -0.86700
O734        O  0.47791190  0.56148603  0.56680810    -0.86300
Zr735      Zr  0.48166071  0.52718905  0.54664138     2.84300
O736        O  0.50601892  0.50835304  0.52345263    -1.08300
O737        O  0.45756826  0.54881039  0.52543001    -1.09000
C738        C  0.47638504  0.58208134  0.56184253     1.06400
C739        C  0.48797924  0.47116322  0.55514066     1.06400
C740        C  0.42486495  0.52282392  0.55699354     1.09400
C741        C  0.53792624  0.53145093  0.55996451     1.07100
H742        H  0.45270198  0.49425423  0.53136309     0.32700
O743        O  0.46131573  0.50460294  0.52273406    -1.29200
H744        H  0.51095415  0.56198554  0.53641256     0.32400
O745        O  0.50262019  0.55269262  0.52647474    -1.30900
O746        O  0.48643811  0.47027289  0.46215641    -0.86700
O747        O  0.47707255  0.59449001  0.47035494    -0.88200
O748        O  0.42218140  0.48968173  0.49960967    -0.86700
O749        O  0.54790942  0.49951416  0.50253531    -0.86800
O750        O  0.54198397  0.57098794  0.50455514    -0.86500
O751        O  0.41611259  0.56000414  0.50366218    -0.86300
O752        O  0.44822653  0.53223550  0.43806608    -0.86700
O753        O  0.52024198  0.53706879  0.44017651    -0.86100
O754        O  0.42102924  0.52754945  0.46428174    -0.87200
O755        O  0.54638616  0.53711410  0.46791185    -0.86400
O756        O  0.45074890  0.46487986  0.49873742    -0.86800
O757        O  0.44046927  0.58879707  0.50659997    -0.86500
O758        O  0.51275230  0.59508526  0.50586284    -0.86100
O759        O  0.52324513  0.47089230  0.49961076    -0.86500
O760        O  0.48502738  0.49876524  0.43725583    -0.86800
O761        O  0.48100510  0.57047096  0.44159303    -0.88200
Zr762      Zr  0.48568572  0.48593875  0.49929700     2.83100
Zr763      Zr  0.47837082  0.57409779  0.50500893     2.83500
Zr764      Zr  0.43785815  0.52646234  0.50096263     2.84100
Zr765      Zr  0.52706712  0.53377307  0.50327074     2.83400
Zr766      Zr  0.48360228  0.53340463  0.45744331     2.84200
O767        O  0.50342129  0.55578296  0.48184882    -1.08700
O768        O  0.46227436  0.50789421  0.47756862    -1.08200
C769        C  0.48578350  0.47808836  0.44219903     1.06400
C770        C  0.47845913  0.58999911  0.44951280     1.09000
C771        C  0.42980337  0.46988675  0.49927953     1.06600
C772        C  0.54314860  0.47887559  0.50106756     1.06900
C773        C  0.53372463  0.59053633  0.50536527     1.06500
C774        C  0.42057101  0.58062540  0.50585979     1.06100
C775        C  0.42774230  0.53000263  0.44407888     1.06500
C776        C  0.54058227  0.53776445  0.44728014     1.06000
H777        H  0.44861728  0.56094714  0.47167833     0.32700
O778        O  0.45853863  0.55194774  0.48045143    -1.29800
H779        H  0.51722531  0.50341883  0.46940604     0.32700
O780        O  0.50710807  0.51122010  0.47891360    -1.31200
C781        C  0.35347586  0.39442625  0.52415716    -0.27800
C782        C  0.36186934  0.40202627  0.50384552     0.01800
C783        C  0.35178310  0.39508186  0.48407592     0.29900
C784        C  0.33315853  0.38122056  0.48474415    -0.19600
C785        C  0.32401651  0.37411189  0.50506487    -0.29000
C786        C  0.33479322  0.38053597  0.52493054     0.43900
C787        C  0.37967830  0.41888633  0.50338018     0.05100
O788        O  0.35961657  0.40233374  0.46398608    -0.57500
H789        H  0.32552288  0.37656371  0.46918180     0.18100
O790        O  0.32728627  0.37347484  0.54521166    -0.64200
H791        H  0.36116272  0.39968831  0.53950934     0.16500
C792        C  0.37465722  0.44069189  0.50870491     0.28800
C793        C  0.39103493  0.45693837  0.50698444    -0.25100
C794        C  0.41292517  0.45187159  0.50036503    -0.24400
C795        C  0.41804673  0.42977590  0.49547335     0.40200
C796        C  0.40137102  0.41356436  0.49670681    -0.26900
O797        O  0.35350008  0.44641650  0.51492827    -0.58700
H798        H  0.38649216  0.47360792  0.51109299     0.15800
O799        O  0.43904022  0.42388160  0.48890644    -0.60200
H800        H  0.40537516  0.39678960  0.49246714     0.14300
H801        H  0.31764849  0.38545259  0.55070622     0.46100
H802        H  0.35357293  0.44569684  0.53135497     0.41500
H803        H  0.44647895  0.41837806  0.50253695     0.45000
H804        H  0.35078367  0.41564530  0.46049853     0.36500
C805        C  0.33552553  0.64533443  0.48920675    -0.27800
C806        C  0.34450890  0.63908700  0.50967961     0.01800
C807        C  0.33478147  0.64697560  0.52926328     0.29900
C808        C  0.31655796  0.66136385  0.52812649    -0.19600
C809        C  0.30753876  0.66789135  0.50753647    -0.29000
C810        C  0.31716165  0.65932060  0.48794932     0.43900
C811        C  0.36371626  0.62387944  0.51010391     0.05100
O812        O  0.34285300  0.64060050  0.54957706    -0.57500
H813        H  0.30952878  0.66741866  0.54342605     0.18100
O814        O  0.30895455  0.66448726  0.46734054    -0.64200
H815        H  0.34279608  0.63923557  0.47401844     0.16500
C816        C  0.36132980  0.60228984  0.50243760     0.28800
C817        C  0.37984929  0.58843419  0.50143291    -0.25100
C818        C  0.40122725  0.59586608  0.50754779    -0.24400
C819        C  0.40352416  0.61764820  0.51525732     0.40200
C820        C  0.38481007  0.63134159  0.51668697    -0.26900
O821        O  0.34081249  0.59449543  0.49618597    -0.58700
H822        H  0.37742296  0.57187408  0.49546996     0.15800
O823        O  0.42383835  0.62567155  0.52181801    -0.60200
H824        H  0.38685886  0.64801911  0.52247030     0.14300
H825        H  0.29758094  0.65308856  0.46418966     0.46100
H826        H  0.34043699  0.59594784  0.47980759     0.41500
H827        H  0.42981375  0.63353335  0.50866857     0.45000
H828        H  0.33612907  0.62597915  0.55242102     0.36500
C829        C  0.62853517  0.41357531  0.48357648    -0.27800
C830        C  0.61769445  0.41896109  0.50329669     0.01800
C831        C  0.62553779  0.41036815  0.52348808     0.29900
C832        C  0.64447502  0.39698793  0.52385138    -0.19600
C833        C  0.65593942  0.39198276  0.50417753    -0.29000
C834        C  0.64751627  0.40028824  0.48383458     0.43900
C835        C  0.59862781  0.43418200  0.50269035     0.05100
O836        O  0.61438661  0.41450718  0.54284276    -0.57500
H837        H  0.65016894  0.39058785  0.53965602     0.18100
O838        O  0.65757326  0.39559800  0.46403857    -0.64200
H839        H  0.62247569  0.42005274  0.46792451     0.16500
C840        C  0.60094615  0.45570971  0.51052555     0.28800
C841        C  0.58283541  0.47007364  0.50971424    -0.25100
C842        C  0.56209124  0.46324659  0.50126975    -0.24400
C843        C  0.55994837  0.44160809  0.49316647     0.40200
C844        C  0.57817354  0.42731303  0.49390219    -0.26900
O845        O  0.62110358  0.46303753  0.51832356    -0.58700
H846        H  0.58505998  0.48657341  0.51592555     0.15800
O847        O  0.54024124  0.43424305  0.48434863    -0.60200
H848        H  0.57633860  0.41078338  0.48764039     0.14300
H849        H  0.66823994  0.40778677  0.46144640     0.46100
H850        H  0.61963307  0.46312516  0.53468924     0.41500
H851        H  0.54108423  0.43782884  0.46831592     0.45000
H852        H  0.62386532  0.42507830  0.55101726     0.36500
C853        C  0.55882248  0.64727604  0.51319029    -0.27800
C854        C  0.58025517  0.64422502  0.50468004     0.01800
C855        C  0.58636278  0.62365845  0.49630276     0.29900
C856        C  0.57115174  0.60626251  0.49690025    -0.19600
C857        C  0.54957140  0.60918451  0.50541060    -0.29000
C858        C  0.54346894  0.63002246  0.51355586     0.43900
C859        C  0.59630981  0.66250567  0.50535080     0.05100
O860        O  0.60741058  0.62024298  0.48823456    -0.57500
H861        H  0.57623682  0.59050277  0.49045678     0.18100
O862        O  0.52267443  0.63373835  0.52211909    -0.64200
H863        H  0.55402295  0.66312332  0.51964929     0.16500
C864        C  0.60369074  0.67268937  0.48578603     0.28800
C865        C  0.61873132  0.69017073  0.48691037    -0.25100
C866        C  0.62665019  0.69787849  0.50747284    -0.24400
C867        C  0.61911774  0.68747663  0.52709985     0.40200
C868        C  0.60394876  0.67007336  0.52587759    -0.26900
O869        O  0.59617401  0.66576073  0.46550217    -0.58700
H870        H  0.62408364  0.69773159  0.47152613     0.15800
O871        O  0.62626210  0.69415658  0.54758748    -0.60200
H872        H  0.59824255  0.66229477  0.54103981     0.14300
H873        H  0.52368851  0.62929476  0.53792931     0.46100
H874        H  0.58307015  0.67508915  0.46213751     0.41500
H875        H  0.63915957  0.68462610  0.55117371     0.45000
H876        H  0.60577817  0.62037570  0.47187115     0.36500
C877        C  0.34934167  0.51399148  0.37134897    -0.27800
C878        C  0.35851334  0.53394231  0.37802899     0.01800
C879        C  0.34964111  0.55370951  0.36996979     0.29900
C880        C  0.33168828  0.55332411  0.35513085    -0.19600
C881        C  0.32218702  0.53328937  0.34837060    -0.29000
C882        C  0.33124413  0.51347316  0.35681565     0.43900
C883        C  0.37642993  0.53376830  0.39459487     0.05100
O884        O  0.35859933  0.57342141  0.37631472    -0.57500
H885        H  0.32521637  0.56877309  0.34898215     0.18100
O886        O  0.32265520  0.49342611  0.35109072    -0.64200
H887        H  0.35601237  0.49872018  0.37779015     0.16500
C888        C  0.37130203  0.53602959  0.41711234     0.28800
C889        C  0.38818679  0.53478504  0.43293960    -0.25100
C890        C  0.41037569  0.53089157  0.42667327    -0.24400
C891        C  0.41539599  0.52825243  0.40394171     0.40200
C892        C  0.39841332  0.52981676  0.38808897    -0.26900
O893        O  0.34975432  0.53934478  0.42379047    -0.58700
H894        H  0.38379017  0.53691466  0.45019873     0.15800
O895        O  0.43667059  0.52389008  0.39700968    -0.60200
H896        H  0.40232866  0.52764904  0.37071390     0.14300
H897        H  0.31142662  0.48999271  0.36264458     0.46100
H898        H  0.34378094  0.52448639  0.42701130     0.41500
H899        H  0.43760582  0.50766632  0.39641086     0.45000
H900        H  0.34944205  0.57822079  0.38904932     0.36500
C901        C  0.45719641  0.67887188  0.38780623    -0.27800
C902        C  0.47628712  0.66609629  0.39130522     0.01800
C903        C  0.49654978  0.67278038  0.38177844     0.29900
C904        C  0.49757738  0.69197768  0.36898297    -0.19600
C905        C  0.47850306  0.70492044  0.36526928    -0.29000
C906        C  0.45809134  0.69802044  0.37481923     0.43900
C907        C  0.47529493  0.64633221  0.40570740     0.05100
O908        O  0.51555830  0.66074670  0.38509162    -0.57500
H909        H  0.51347074  0.69666176  0.36191883     0.18100
O910        O  0.43897988  0.71001940  0.37206029    -0.64200
H911        H  0.44149280  0.67393597  0.39514399     0.16500
C912        C  0.47029373  0.64823792  0.42833522     0.28800
C913        C  0.47114175  0.62977106  0.44215442    -0.25100
C914        C  0.47687147  0.60896603  0.43383582    -0.24400
C915        C  0.48132436  0.60703520  0.41091210     0.40200
C916        C  0.48060602  0.62565031  0.39712800    -0.26900
O917        O  0.46581499  0.66834616  0.43735999    -0.58700
H918        H  0.46754857  0.63194678  0.45958902     0.15800
O919        O  0.48728872  0.58731404  0.40189184    -0.60200
H920        H  0.48451364  0.62399851  0.37969269     0.14300
H921        H  0.43097245  0.70297449  0.35957641     0.46100
H922        H  0.44934264  0.66913134  0.43821890     0.41500
H923        H  0.47332930  0.58116724  0.39563850     0.45000
H924        H  0.52197652  0.66625798  0.39916700     0.36500
C925        C  0.61940684  0.51802328  0.37529712    -0.27800
C926        C  0.60954922  0.53823744  0.38016424     0.01800
C927        C  0.61732619  0.55730246  0.36946107     0.29900
C928        C  0.63511343  0.55603044  0.35452010    -0.19600
C929        C  0.64534435  0.53582633  0.34982803    -0.29000
C930        C  0.63697758  0.51662959  0.36018267     0.43900
C931        C  0.59197575  0.53919773  0.39732599     0.05100
O932        O  0.60852225  0.57740195  0.37450027    -0.57500
H933        H  0.64106197  0.57102474  0.34682308     0.18100
O934        O  0.64638235  0.49650347  0.35649280    -0.64200
H935        H  0.61355782  0.50322080  0.38346251     0.16500
C936        C  0.57029220  0.54643185  0.39231476     0.28800
C937        C  0.55386221  0.54634813  0.40879170    -0.25100
C938        C  0.55862711  0.53889651  0.43042700    -0.24400
C939        C  0.58048396  0.53169183  0.43532727     0.40200
C940        C  0.59686316  0.53195243  0.41887248    -0.26900
O941        O  0.56485016  0.55312420  0.37125065    -0.58700
H942        H  0.53726743  0.55192259  0.40451959     0.15800
O943        O  0.58599502  0.52387296  0.45598627    -0.60200
H944        H  0.61347596  0.52623487  0.42290501     0.14300
H945        H  0.63739042  0.48990396  0.34442506     0.46100
H946        H  0.56024998  0.53958366  0.36342685     0.41500
H947        H  0.58386856  0.50775949  0.45515921     0.45000
H948        H  0.59911079  0.58144546  0.36158518     0.36500
C949        C  0.46287045  0.41435950  0.35644245    -0.27800
C950        C  0.48296299  0.41779973  0.36779123     0.01800
C951        C  0.50217448  0.40669965  0.36070580     0.29900
C952        C  0.50115963  0.39262405  0.34240008    -0.19600
C953        C  0.48106241  0.38923493  0.33074668    -0.29000
C954        C  0.46172320  0.40017727  0.33826605     0.43900
C955        C  0.48371812  0.43316141  0.38684656     0.05100
O956        O  0.52212918  0.40973694  0.37138942    -0.57500
H957        H  0.51629145  0.38448109  0.33726458     0.18100
O958        O  0.44157516  0.39748905  0.32789028    -0.64200
H959        H  0.44788244  0.42262384  0.36181938     0.16500
C960        C  0.47789999  0.45535516  0.38414095     0.28800
C961        C  0.47908002  0.46970648  0.40215174    -0.25100
C962        C  0.48541814  0.46227280  0.42338613    -0.24400
C963        C  0.49078617  0.43981742  0.42614300     0.40200
C964        C  0.49017045  0.42560526  0.40791592    -0.26900
O965        O  0.47171012  0.46334446  0.36374092    -0.58700
H966        H  0.47472501  0.48673565  0.39942463     0.15800
O967        O  0.49713237  0.43159368  0.44639662    -0.60200
H968        H  0.49450502  0.40851122  0.41029976     0.14300
H969        H  0.43423755  0.38517249  0.33584907     0.46100
H970        H  0.45526983  0.46478775  0.36439962     0.41500
H971        H  0.48336411  0.42530293  0.45293393     0.45000
H972        H  0.52924711  0.42234784  0.36371373     0.36500
C973        C  0.59303194  0.53448891  0.59167159    -0.27800
C974        C  0.58553747  0.53386772  0.61362617     0.01800
C975        C  0.56262566  0.53220261  0.61792719     0.29900
C976        C  0.54746600  0.53132509  0.60035815    -0.19600
C977        C  0.55473871  0.53216479  0.57815943    -0.29000
C978        C  0.57788888  0.53385772  0.57397886     0.43900
C979        C  0.60168378  0.53504066  0.63205327     0.05100
O980        O  0.55486647  0.53145539  0.63929390    -0.57500
H981        H  0.52990651  0.53004752  0.60425930     0.18100
O982        O  0.58601457  0.53468797  0.55275968    -0.64200
H983        H  0.61070237  0.53576569  0.58824808     0.16500
C984        C  0.61650577  0.51773136  0.63621725     0.28800
C985        C  0.63117013  0.51883665  0.65423052    -0.25100
C986        C  0.63139289  0.53716871  0.66836588    -0.24400
C987        C  0.61644332  0.55455979  0.66398170     0.40200
C988        C  0.60181288  0.55337607  0.64593129    -0.26900
O989        O  0.61604168  0.49924349  0.62336558    -0.58700
H990        H  0.64230249  0.50516178  0.65715170     0.15800
O991        O  0.61569807  0.57269351  0.67729239    -0.60200
H992        H  0.59036028  0.56676628  0.64283286     0.14300
H993        H  0.58880296  0.55046131  0.54971566     0.46100
H994        H  0.62837890  0.50114595  0.61262067     0.41500
H995        H  0.60514810  0.56881174  0.68932808     0.45000
H996        H  0.55739535  0.51616186  0.64437771     0.36500
C997        C  0.46842755  0.39586269  0.62890697    -0.27800
C998        C  0.48948478  0.40241200  0.62125997     0.01800
C999        C  0.50861810  0.39437015  0.63201468     0.29900
C1000       C  0.50649023  0.38060043  0.65054038    -0.19600
C1001       C  0.48537920  0.37444460  0.65873923    -0.29000
C1002       C  0.46623113  0.38199038  0.64736020     0.43900
C1003       C  0.49107192  0.41896476  0.60321947     0.05100
O1004       O  0.52947501  0.40025590  0.62481606    -0.57500
H1005       H  0.52156943  0.37502196  0.65864698     0.18100
O1006       O  0.44522970  0.37669328  0.65451388    -0.64200
H1007       H  0.45352274  0.40212804  0.62095368     0.16500
C1008       C  0.47984747  0.41602543  0.58292203     0.28800
C1009       C  0.47949544  0.43295502  0.56716615    -0.25100
C1010       C  0.49005242  0.45307637  0.57140366    -0.24400
C1011       C  0.50191570  0.45576946  0.59140813     0.40200
C1012       C  0.50248560  0.43871707  0.60704137    -0.26900
O1013       O  0.46871949  0.39685184  0.57856901    -0.58700
H1014       H  0.47033403  0.43056782  0.55186417     0.15800
O1015       O  0.51335856  0.47481620  0.59563097    -0.60200
H1016       H  0.51121121  0.44124940  0.62256353     0.14300
H1017       H  0.44107083  0.36332914  0.64615975     0.46100
H1018       H  0.47914375  0.38806147  0.56952343     0.41500
H1019       H  0.50409847  0.48289891  0.60643938     0.45000
H1020       H  0.53517596  0.38729079  0.61677948     0.36500
C1021       C  0.34135519  0.54099176  0.62394747    -0.27800
C1022       C  0.35406275  0.52189347  0.62174792     0.01800
C1023       C  0.34970647  0.50377779  0.63557844     0.29900
C1024       C  0.33315199  0.50511545  0.65173081    -0.19600
C1025       C  0.32051199  0.52436633  0.65424892    -0.29000
C1026       C  0.32452485  0.54227094  0.63980380     0.43900
C1027       C  0.37197087  0.52118858  0.60508242     0.05100
O1028       O  0.36154750  0.48469592  0.63343169    -0.57500
H1029       H  0.33037595  0.49102211  0.66238980     0.18100
O1030       O  0.31229378  0.56119259  0.64101908    -0.64200
H1031       H  0.34461767  0.55507475  0.61340148     0.16500
C1032       C  0.36735949  0.52517998  0.58259353     0.28800
C1033       C  0.38464656  0.52513534  0.56714017    -0.25100
C1034       C  0.40684821  0.52151842  0.57378927    -0.24400
C1035       C  0.41133275  0.51732261  0.59645371     0.40200
C1036       C  0.39392290  0.51707895  0.61181670    -0.26900
O1037       O  0.34589265  0.52858806  0.57551823    -0.58700
H1038       H  0.38058062  0.52832371  0.54992025     0.15800
O1039       O  0.43254102  0.51308537  0.60380443    -0.60200
H1040       H  0.39763684  0.51404598  0.62915304     0.14300
H1041       H  0.29877624  0.55838817  0.63197077     0.46100
H1042       H  0.34481450  0.54457648  0.57259841     0.41500
H1043       H  0.43800539  0.52716220  0.60996262     0.45000
H1044       H  0.35357551  0.47623688  0.62186181     0.36500
C1045       C  0.45541706  0.64022457  0.65253323    -0.27800
C1046       C  0.47207271  0.64161941  0.63629925     0.01800
C1047       C  0.48894091  0.65752093  0.63842100     0.29900
C1048       C  0.48875237  0.67202058  0.65625601    -0.19600
C1049       C  0.47205185  0.67083869  0.67252155    -0.29000
C1050       C  0.45539306  0.65450891  0.67063361     0.43900
C1051       C  0.47197198  0.62636857  0.61727046     0.05100
O1052       O  0.50583042  0.65890213  0.62319389    -0.57500
H1053       H  0.50181402  0.68426396  0.65726604     0.18100
O1054       O  0.43905996  0.65221010  0.68634172    -0.64200
H1055       H  0.44232733  0.62804300  0.65113773     0.16500
C1056       C  0.47197284  0.60353733  0.62059656     0.28800
C1057       C  0.47338126  0.58947464  0.60243321    -0.25100
C1058       C  0.47447417  0.59772667  0.58060510    -0.24400
C1059       C  0.47382548  0.62072653  0.57733384     0.40200
C1060       C  0.47266393  0.63474977  0.59557764    -0.26900
O1061       O  0.47176788  0.59482854  0.64161837    -0.58700
H1062       H  0.47378267  0.57197916  0.60561459     0.15800
O1063       O  0.47486424  0.62981968  0.55651475    -0.60200
H1064       H  0.47241546  0.65232007  0.59277348     0.14300
H1065       H  0.44554410  0.64245573  0.69786868     0.46100
H1066       H  0.45670134  0.58836888  0.64347873     0.41500
H1067       H  0.45913423  0.63163550  0.55181482     0.45000
H1068       H  0.51852815  0.65095810  0.63003040     0.36500
C1069       C  0.67018458  0.77676839  0.62879632    -0.27800
C1070       C  0.68741029  0.77788842  0.61316033     0.01800
C1071       C  0.70831006  0.78633313  0.61962451     0.29900
C1072       C  0.71203991  0.79225698  0.64181516    -0.19600
C1073       C  0.69521403  0.78943326  0.65775585    -0.29000
C1074       C  0.67399054  0.78225392  0.65091276     0.43900
C1075       C  0.68358918  0.76844402  0.59084688     0.05100
O1076       O  0.72550502  0.78767281  0.60474116    -0.57500
H1077       H  0.72851580  0.79758467  0.64684905     0.18100
O1078       O  0.65710836  0.77954067  0.66596970    -0.64200
H1079       H  0.65388812  0.77074142  0.62399315     0.16500
C1080       C  0.67610438  0.74664315  0.58882092     0.28800
C1081       C  0.67069765  0.73821636  0.56801405    -0.25100
C1082       C  0.67261446  0.75116088  0.54878690    -0.24400
C1083       C  0.68088434  0.77280438  0.55070249     0.40200
C1084       C  0.68634455  0.78125656  0.57163745    -0.26900
O1085       O  0.67453225  0.73326735  0.60713534    -0.58700
H1086       H  0.66488304  0.72141564  0.56700712     0.15800
O1087       O  0.68313465  0.78606494  0.53240117    -0.60200
H1088       H  0.69208677  0.79805853  0.57294304     0.14300
H1089       H  0.64942619  0.79390838  0.66643086     0.46100
H1090       H  0.65834707  0.73154813  0.60994808     0.41500
H1091       H  0.66827363  0.79280719  0.53015956     0.45000
H1092       H  0.73250156  0.77295233  0.60492600     0.36500
C1093       C  0.67031738  0.65883595  0.73964989    -0.27800
C1094       C  0.68145669  0.64241777  0.75165217     0.01800
C1095       C  0.69769180  0.64865406  0.76737628     0.29900
C1096       C  0.70298723  0.67090182  0.77031359    -0.19600
C1097       C  0.69233826  0.68729575  0.75768259    -0.29000
C1098       C  0.67539985  0.68097950  0.74265961     0.43900
C1099       C  0.67705752  0.61901750  0.74613274     0.05100
O1100       O  0.70892790  0.63313942  0.77953604    -0.57500
H1101       H  0.71602010  0.67523838  0.78195121     0.18100
O1102       O  0.66407098  0.69624269  0.73024192    -0.64200
H1103       H  0.65808797  0.65448437  0.72719286     0.16500
C1104       C  0.65508700  0.61102364  0.74388490     0.28800
C1105       C  0.65126748  0.59015113  0.73498888    -0.25100
C1106       C  0.66911375  0.57671917  0.72882139    -0.24400
C1107       C  0.69106221  0.58412147  0.73228737     0.40200
C1108       C  0.69490530  0.60517426  0.74069673    -0.26900
O1109       O  0.63731328  0.62340959  0.75066605    -0.58700
H1110       H  0.63428515  0.58451023  0.73270751     0.15800
O1111       O  0.70887568  0.57137375  0.72643128    -0.60200
H1112       H  0.71189773  0.61105012  0.74198774     0.14300
H1113       H  0.65014179  0.69905092  0.73854977     0.46100
H1114       H  0.62910847  0.62743192  0.73694912     0.41500
H1115       H  0.71142232  0.57456542  0.71049748     0.45000
H1116       H  0.69859901  0.62885668  0.79161834     0.36500
C1117       C  0.54908478  0.73845866  0.70535715    -0.27800
C1118       C  0.55631908  0.73971977  0.72743925     0.01800
C1119       C  0.54145598  0.73407642  0.74460727     0.29900
C1120       C  0.51999237  0.72656073  0.73950309    -0.19600
C1121       C  0.51323695  0.72414331  0.71736300    -0.29000
C1122       C  0.52778124  0.73069575  0.70024472     0.43900
C1123       C  0.57959683  0.74631921  0.73222266     0.05100
O1124       O  0.54804459  0.73498589  0.76636622    -0.57500
H1125       H  0.50904278  0.72153284  0.75285939     0.18100
O1126       O  0.52145365  0.72928281  0.67843453    -0.64200
H1127       H  0.56012933  0.74324866  0.69199156     0.16500
C1128       C  0.59755104  0.73516778  0.72247728     0.28800
C1129       C  0.61942504  0.74187167  0.72672730    -0.25100
C1130       C  0.62393562  0.75977686  0.74063494    -0.24400
C1131       C  0.60582860  0.77089014  0.75046993     0.40200
C1132       C  0.58393906  0.76405041  0.74628439    -0.26900
O1133       O  0.59388235  0.71715545  0.70941706    -0.58700
H1134       H  0.63289582  0.73286825  0.71911787     0.15800
O1135       O  0.60920607  0.78854985  0.76406204    -0.60200
H1136       H  0.57026266  0.77288475  0.75375866     0.14300
H1137       H  0.51472606  0.74371458  0.67483903     0.46100
H1138       H  0.59686403  0.72215943  0.69403279     0.41500
H1139       H  0.60834333  0.80158153  0.75418515     0.45000
H1140       H  0.55494152  0.72053019  0.76951028     0.36500
C1141       C  0.72186039  0.36397511  0.58609408    -0.27800
C1142       C  0.72556351  0.34191977  0.59168846     0.01800
C1143       C  0.72401298  0.32585884  0.57502617     0.29900
C1144       C  0.71806348  0.33193199  0.55331384    -0.19600
C1145       C  0.71327517  0.35386981  0.54806502    -0.29000
C1146       C  0.71558347  0.36997642  0.56456352     0.43900
C1147       C  0.72840349  0.33577245  0.61535829     0.05100
O1148       O  0.72643171  0.30405935  0.58021990    -0.57500
H1149       H  0.71603064  0.31933682  0.54086886     0.18100
O1150       O  0.71178698  0.39167223  0.55975013    -0.64200
H1151       H  0.72311479  0.37652180  0.59869085     0.16500
C1152       C  0.74694373  0.32383691  0.62301283     0.28800
C1153       C  0.74823412  0.31731216  0.64532170    -0.25100
C1154       C  0.73128796  0.32274290  0.66045222    -0.24400
C1155       C  0.71311863  0.33547915  0.65274390     0.40200
C1156       C  0.71188221  0.34183775  0.63048129    -0.26900
O1157       O  0.76388883  0.31850215  0.60884371    -0.58700
H1158       H  0.76250451  0.30780818  0.65068512     0.15800
O1159       O  0.69650015  0.34207220  0.66676900    -0.60200
H1160       H  0.69762354  0.35125330  0.62488513     0.14300
H1161       H  0.69655590  0.39468899  0.56527523     0.46100
H1162       H  0.77531177  0.33008910  0.61093237     0.41500
H1163       H  0.68417075  0.33145547  0.66449441     0.45000
H1164       H  0.74099483  0.29976273  0.57387430     0.36500
C1165       C  0.56488609  0.33483435  0.71916987    -0.27800
C1166       C  0.56534556  0.32693135  0.74099427     0.01800
C1167       C  0.54502580  0.32331296  0.75207541     0.29900
C1168       C  0.52466804  0.32820593  0.74147851    -0.19600
C1169       C  0.52415805  0.33643869  0.71961318    -0.29000
C1170       C  0.54472807  0.33926178  0.70838391     0.43900
C1171       C  0.58735745  0.32261564  0.75158896     0.05100
O1172       O  0.54494674  0.31592097  0.77357825    -0.57500
H1173       H  0.50929482  0.32583655  0.75055025     0.18100
O1174       O  0.54553129  0.34636329  0.68678437    -0.64200
H1175       H  0.58036040  0.33738237  0.71028326     0.16500
C1176       C  0.59416951  0.30114791  0.75707719     0.28800
C1177       C  0.61629368  0.29710076  0.76359078    -0.25100
C1178       C  0.63198741  0.31420740  0.76438809    -0.24400
C1179       C  0.62480499  0.33584166  0.76027924     0.40200
C1180       C  0.60271933  0.33988865  0.75379814    -0.26900
O1181       O  0.57975883  0.28383048  0.75472613    -0.58700
H1182       H  0.62158217  0.28033158  0.76639562     0.15800
O1183       O  0.63953993  0.35301846  0.76160739    -0.60200
H1184       H  0.59775420  0.35650567  0.74971092     0.14300
H1185       H  0.54524845  0.33282528  0.67774995     0.46100
H1186       H  0.58212114  0.27845989  0.73942633     0.41500
H1187       H  0.63644589  0.36002297  0.77607386     0.45000
H1188       H  0.54120528  0.30010315  0.77266372     0.36500
C1189       C  0.69622286  0.46177586  0.70743772    -0.27800
C1190       C  0.69492430  0.45444490  0.72945570     0.01800
C1191       C  0.68811516  0.46916506  0.74605008     0.29900
C1192       C  0.68183552  0.49061938  0.74027494    -0.19600
C1193       C  0.68186778  0.49742984  0.71800142    -0.29000
C1194       C  0.68968319  0.48298757  0.70163961     0.43900
C1195       C  0.69976436  0.43111603  0.73446490     0.05100
O1196       O  0.68657933  0.46245429  0.76773328    -0.57500
H1197       H  0.67574565  0.50150120  0.75302678     0.18100
O1198       O  0.69043866  0.48926274  0.67978359    -0.64200
H1199       H  0.70184347  0.45077838  0.69457017     0.16500
C1200       C  0.68825788  0.41430104  0.72331303     0.28800
C1201       C  0.69369021  0.39233672  0.72723997    -0.25100
C1202       C  0.71063431  0.38655859  0.74231672    -0.24400
C1203       C  0.72217118  0.40357184  0.75348375     0.40200
C1204       C  0.71651446  0.42555089  0.74965647    -0.26900
O1205       O  0.67164090  0.41918633  0.70844772    -0.58700
H1206       H  0.68452370  0.37981364  0.71837223     0.15800
O1207       O  0.73902694  0.39905437  0.76818908    -0.60200
H1208       H  0.72563344  0.43833543  0.75819957     0.14300
H1209       H  0.70496538  0.49684037  0.67800905     0.46100
H1210       H  0.65805301  0.42109462  0.71754482     0.41500
H1211       H  0.75285307  0.39932211  0.75921759     0.45000
H1212       H  0.67101419  0.45726179  0.76953187     0.36500
C1213       C  0.21045635  0.73606398  0.61808303    -0.27800
C1214       C  0.23037313  0.74131314  0.60701703     0.01800
C1215       C  0.24650438  0.75409749  0.61791856     0.29900
C1216       C  0.24325086  0.76035401  0.63993099    -0.19600
C1217       C  0.22379563  0.75441755  0.65138734    -0.29000
C1218       C  0.20698860  0.74275805  0.64010758     0.43900
C1219       C  0.23540871  0.73195969  0.58493484     0.05100
O1220       O  0.26589962  0.75990541  0.60740629    -0.57500
H1221       H  0.25625398  0.76951784  0.64828101     0.18100
O1222       O  0.18760056  0.73710820  0.65071055    -0.64200
H1223       H  0.19785493  0.72631621  0.60981784     0.16500
C1224       C  0.24040472  0.70952960  0.58281683     0.28800
C1225       C  0.24878968  0.70145757  0.56278267    -0.25100
C1226       C  0.25187980  0.71541156  0.54442302    -0.24400
C1227       C  0.24589663  0.73771854  0.54629478     0.40200
C1228       C  0.23790116  0.74583865  0.56647502    -0.26900
O1229       O  0.23851266  0.69566158  0.60069480    -0.58700
H1230       H  0.25315387  0.68426545  0.56169221     0.15800
O1231       O  0.24872958  0.75197102  0.52885223    -0.60200
H1232       H  0.23428220  0.76317081  0.56793988     0.14300
H1233       H  0.18923793  0.72137124  0.65461395     0.46100
H1234       H  0.22388833  0.68829677  0.59882169     0.41500
H1235       H  0.26443860  0.75694573  0.52987478     0.45000
H1236       H  0.27675198  0.74830830  0.61145146     0.36500
C1237       C  0.35333406  0.71870893  0.73535659    -0.27800
C1238       C  0.36742844  0.72110209  0.75362970     0.01800
C1239       C  0.35905003  0.72999135  0.77333068     0.29900
C1240       C  0.33683770  0.73705799  0.77427280    -0.19600
C1241       C  0.32270930  0.73539207  0.75562695    -0.29000
C1242       C  0.33117502  0.72557790  0.73613588     0.43900
C1243       C  0.39123386  0.71600788  0.75066749     0.05100
O1244       O  0.37256408  0.73231121  0.79152319    -0.57500
H1245       H  0.33087524  0.74434313  0.78947025     0.18100
O1246       O  0.31844922  0.72396090  0.71724018    -0.64200
H1247       H  0.35980754  0.71216854  0.71999404     0.16500
C1248       C  0.39789395  0.69462445  0.74525983     0.28800
C1249       C  0.41920949  0.69097182  0.73680816    -0.25100
C1250       C  0.43409181  0.70849059  0.73349406    -0.24400
C1251       C  0.42791273  0.72970396  0.74033043     0.40200
C1252       C  0.40657776  0.73330612  0.74891761    -0.26900
O1253       O  0.38337745  0.67734466  0.74754968    -0.58700
H1254       H  0.42378595  0.67449825  0.73197474     0.15800
O1255       O  0.44191402  0.74726240  0.73723754    -0.60200
H1256       H  0.40146385  0.74989644  0.75271708     0.14300
H1257       H  0.31963358  0.70853307  0.71227639     0.46100
H1258       H  0.37766171  0.67443552  0.73240935     0.41500
H1259       H  0.43812972  0.75317522  0.72234977     0.45000
H1260       H  0.37205022  0.71789254  0.79920177     0.36500
C1261       C  0.25868853  0.59498260  0.72646243    -0.27800
C1262       C  0.25554997  0.61045691  0.70941954     0.01800
C1263       C  0.25856072  0.60402351  0.68724891     0.29900
C1264       C  0.26547092  0.58269488  0.68249336    -0.19600
C1265       C  0.26911824  0.56734601  0.69958134    -0.29000
C1266       C  0.26535277  0.57354897  0.72169244     0.43900
C1267       C  0.25071226  0.63357191  0.71507549     0.05100
O1268       O  0.25519465  0.61857883  0.67014828    -0.57500
H1269       H  0.26822624  0.57820491  0.66536170     0.18100
O1270       O  0.26920477  0.55917469  0.73883579    -0.64200
H1271       H  0.25685058  0.59976605  0.74362012     0.16500
C1272       C  0.23283108  0.63910032  0.72897792     0.28800
C1273       C  0.22924073  0.66103688  0.73475415    -0.25100
C1274       C  0.24348237  0.67780722  0.72706915    -0.24400
C1275       C  0.26161659  0.67203416  0.71339900     0.40200
C1276       C  0.26494486  0.65018668  0.70738867    -0.26900
O1277       O  0.21834318  0.62324714  0.73637071    -0.58700
H1278       H  0.21514498  0.66487466  0.74520277     0.15800
O1279       O  0.27665879  0.68744538  0.70629164    -0.60200
H1280       H  0.27913085  0.64611965  0.69713527     0.14300
H1281       H  0.28487663  0.56181510  0.74335262     0.46100
H1282       H  0.22222361  0.62084708  0.75218765     0.41500
H1283       H  0.28782182  0.68824522  0.71838865     0.45000
H1284       H  0.23932935  0.61674691  0.66591421     0.36500
C1285       C  0.22365736  0.30384767  0.61439929    -0.27800
C1286       C  0.23450150  0.32390894  0.61028233     0.01800
C1287       C  0.23881652  0.33802790  0.62819021     0.29900
C1288       C  0.23385734  0.33132695  0.64987790    -0.19600
C1289       C  0.22463924  0.31053473  0.65426362    -0.29000
C1290       C  0.21874097  0.29707653  0.63620756     0.43900
C1291       C  0.24386479  0.32873643  0.58792796     0.05100
O1292       O  0.24823813  0.35828740  0.62460021    -0.57500
H1293       H  0.23814289  0.34213153  0.66345014     0.18100
O1294       O  0.21028865  0.27644303  0.63976588    -0.64200
H1295       H  0.22029876  0.29277649  0.60080579     0.16500
C1296       C  0.26701695  0.33137304  0.58532186     0.28800
C1297       C  0.27599746  0.33619809  0.56451295    -0.25100
C1298       C  0.26237485  0.33805201  0.54561999    -0.24400
C1299       C  0.23918912  0.33461043  0.54802250     0.40200
C1300       C  0.23010630  0.33008299  0.56908762    -0.26900
O1301       O  0.28113829  0.32902605  0.60307866    -0.58700
H1302       H  0.29387213  0.33828726  0.56318929     0.15800
O1303       O  0.22515183  0.33651150  0.53016003    -0.60200
H1304       H  0.21227473  0.32787298  0.57075502     0.14300
H1305       H  0.19435394  0.27736221  0.63550146     0.46100
H1306       H  0.28518145  0.31326701  0.60335155     0.41500
H1307       H  0.22211786  0.32123710  0.52544535     0.45000
H1308       H  0.26316748  0.35771088  0.63166683     0.36500
C1309       C  0.28595742  0.44913622  0.71981988    -0.27800
C1310       C  0.26361384  0.44497815  0.72502653     0.01800
C1311       C  0.24851302  0.46263810  0.72583398     0.29900
C1312       C  0.25550411  0.48373343  0.71947425    -0.19600
C1313       C  0.27739939  0.48733067  0.71210429    -0.29000
C1314       C  0.29290056  0.47000840  0.71337282     0.43900
C1315       C  0.25638175  0.42194360  0.72826931     0.05100
O1316       O  0.22672140  0.45927722  0.73176012    -0.57500
H1317       H  0.24343428  0.49690892  0.71894942     0.18100
O1318       O  0.31475911  0.47304371  0.70749099    -0.64200
H1319       H  0.29798930  0.43591712  0.72005305     0.16500
C1320       C  0.26148556  0.40597516  0.71226594     0.28800
C1321       C  0.25596141  0.38401555  0.71602382    -0.25100
C1322       C  0.24537353  0.37743760  0.73568874    -0.24400
C1323       C  0.23987792  0.39354021  0.75155620     0.40200
C1324       C  0.24531320  0.41558261  0.74770173    -0.26900
O1325       O  0.27139596  0.41181112  0.69260525    -0.58700
H1326       H  0.26005954  0.37209477  0.70342831     0.15800
O1327       O  0.22970924  0.38794448  0.77112990    -0.60200
H1328       H  0.24147787  0.42763725  0.76024328     0.14300
H1329       H  0.32198859  0.47956310  0.72070667     0.46100
H1330       H  0.28687961  0.40623668  0.69362296     0.41500
H1331       H  0.24205178  0.38452696  0.78153931     0.45000
H1332       H  0.21854615  0.45734329  0.71760181     0.36500
C1333       C  0.35695351  0.33503955  0.73466786    -0.27800
C1334       C  0.37417556  0.32026665  0.73969296     0.01800
C1335       C  0.36890812  0.30101956  0.75174962     0.29900
C1336       C  0.34667170  0.29643175  0.75769036    -0.19600
C1337       C  0.32931356  0.31067664  0.75147623    -0.29000
C1338       C  0.33481788  0.33038332  0.74030037     0.43900
C1339       C  0.39721488  0.32484861  0.73135610     0.05100
O1340       O  0.38519817  0.28612362  0.75697679    -0.57500
H1341       H  0.34287722  0.28112983  0.76609844     0.18100
O1342       O  0.31856378  0.34502216  0.73420010    -0.64200
H1343       H  0.36062837  0.35017975  0.72591833     0.16500
C1344       C  0.40090538  0.32966757  0.70876805     0.28800
C1345       C  0.42234934  0.33494323  0.70120494    -0.25100
C1346       C  0.44071521  0.33557301  0.71575102    -0.24400
C1347       C  0.43709026  0.33039871  0.73832988     0.40200
C1348       C  0.41555137  0.32506186  0.74591510    -0.26900
O1349       O  0.38372927  0.32847477  0.69375804    -0.58700
H1350       H  0.42455773  0.33847227  0.68372631     0.15800
O1351       O  0.45432245  0.33093821  0.75327060    -0.60200
H1352       H  0.41308899  0.32157740  0.76336469     0.14300
H1353       H  0.31638418  0.35447946  0.74733031     0.46100
H1354       H  0.38019271  0.34389102  0.68979872     0.41500
H1355       H  0.45415993  0.34598619  0.75942032     0.45000
H1356       H  0.38559056  0.27585457  0.74429586     0.36500
C1357       C  0.11982836  0.15743426  0.98817165    -0.27800
C1358       C  0.10927750  0.15422776  0.00869625     0.01800
C1359       C  0.11860652  0.16386373  0.02771110     0.29900
C1360       C  0.13838949  0.17594084  0.02620039    -0.19600
C1361       C  0.14932886  0.17895795  0.00577464    -0.29000
C1362       C  0.13963075  0.16969580  0.98656845     0.43900
C1363       C  0.08949892  0.13958064  0.01052924     0.05100
O1364       O  0.10855671  0.16142647  0.04797334    -0.57500
H1365       H  0.14513363  0.18299173  0.04123241     0.18100
O1366       O  0.14975082  0.17167172  0.96629997    -0.64200
H1367       H  0.11300791  0.14990052  0.97340877     0.16500
C1368       C  0.06981829  0.14343865  0.99830908     0.28800
C1369       C  0.05178020  0.12876392  0.99994333    -0.25100
C1370       C  0.05317844  0.11001017  0.01352525    -0.24400
C1371       C  0.07268359  0.10652774  0.02614314     0.40200
C1372       C  0.09051810  0.12126390  0.02466149    -0.26900
O1373       O  0.06814671  0.16134167  0.98455462    -0.58700
H1374       H  0.03701874  0.13161327  0.98997405     0.15800
O1375       O  0.07434787  0.08885631  0.04024167    -0.60200
H1376       H  0.10545731  0.11808699  0.03426341     0.14300
H1377       H  0.14284242  0.18473148  0.95925482     0.46100
H1378       H  0.06331291  0.17351708  0.99423758     0.41500
H1379       H  0.08346455  0.07794491  0.03220910     0.45000
H1380       H  0.09808497  0.17392595  0.04907517     0.36500
C1381       C  0.24797317  0.23872505  0.88890569    -0.27800
C1382       C  0.22671434  0.23968155  0.89852814     0.01800
C1383       C  0.20857846  0.24676441  0.88561869     0.29900
C1384       C  0.21162696  0.25232132  0.86332872    -0.19600
C1385       C  0.23270906  0.25091968  0.85333391    -0.29000
C1386       C  0.25105956  0.24425707  0.86641672     0.43900
C1387       C  0.22270150  0.23137865  0.92131692     0.05100
O1388       O  0.18771935  0.24825556  0.89473307    -0.57500
H1389       H  0.19729383  0.25758000  0.85374558     0.18100
O1390       O  0.27183425  0.24228589  0.85724674    -0.64200
H1391       H  0.26201622  0.23300848  0.89863825     0.16500
C1392       C  0.21219168  0.21096790  0.92435515     0.28800
C1393       C  0.20496787  0.20449807  0.94540391    -0.25100
C1394       C  0.20835151  0.21795140  0.96395687    -0.24400
C1395       C  0.21999010  0.23795453  0.96112247     0.40200
C1396       C  0.22690357  0.24462173  0.93982697    -0.26900
O1397       O  0.20803586  0.19760167  0.90660246    -0.58700
H1398       H  0.19640224  0.18892490  0.94715216     0.15800
O1399       O  0.22327740  0.25178714  0.97868095    -0.60200
H1400       H  0.23479728  0.26048302  0.93764299     0.14300
H1401       H  0.27254395  0.22701635  0.85171578     0.46100
H1402       H  0.22219817  0.18968622  0.90401180     0.41500
H1403       H  0.23902523  0.24960903  0.98316447     0.45000
H1404       H  0.17981832  0.23473131  0.89009006     0.36500
C1405       C  0.70647058  0.75567827  0.44263615    -0.27800
C1406       C  0.69239417  0.75532070  0.42400723     0.01800
C1407       C  0.66926097  0.75279562  0.42709051     0.29900
C1408       C  0.66077595  0.74910102  0.44830796    -0.19600
C1409       C  0.67496668  0.74848065  0.46681898    -0.29000
C1410       C  0.69788860  0.75246634  0.46396345     0.43900
C1411       C  0.70198297  0.75642571  0.40140743     0.05100
O1412       O  0.65484893  0.75341091  0.40941466    -0.57500
H1413       H  0.64304882  0.74630437  0.45026737     0.18100
O1414       O  0.71221306  0.75203945  0.48170354    -0.64200
H1415       H  0.72429832  0.75749844  0.44059831     0.16500
C1416       C  0.71695003  0.77315024  0.39524680     0.28800
C1417       C  0.72485438  0.77433881  0.37346671    -0.25100
C1418       C  0.71815730  0.75893860  0.35747906    -0.24400
C1419       C  0.70403169  0.74149764  0.36407792     0.40200
C1420       C  0.69607246  0.74043277  0.38580820    -0.26900
O1421       O  0.72280909  0.78921739  0.41000124    -0.58700
H1422       H  0.73563350  0.78791095  0.36895761     0.15800
O1423       O  0.69739732  0.72565967  0.34939186    -0.60200
H1424       H  0.68507657  0.72706894  0.39047328     0.14300
H1425       H  0.71722502  0.73659193  0.48293294     0.46100
H1426       H  0.73872521  0.78654726  0.41352812     0.41500
H1427       H  0.70903057  0.71416277  0.35028159     0.45000
H1428       H  0.65171384  0.76919352  0.40689921     0.36500
C1429       C  0.55136230  0.77165409  0.29651679    -0.27800
C1430       C  0.56920236  0.76804255  0.31118607     0.01800
C1431       C  0.56477600  0.75994475  0.33260878     0.29900
C1432       C  0.54292386  0.75478191  0.33882517    -0.19600
C1433       C  0.52506697  0.75760519  0.32396632    -0.29000
C1434       C  0.52939907  0.76649827  0.30276354     0.43900
C1435       C  0.59254397  0.77096726  0.30361339     0.05100
O1436       O  0.58176928  0.75725245  0.34764250    -0.57500
H1437       H  0.53997783  0.74832871  0.35533601     0.18100
O1438       O  0.51258705  0.76872348  0.28749924    -0.64200
H1439       H  0.55457593  0.77768023  0.27989728     0.16500
C1440       C  0.60690555  0.75281816  0.30267492     0.28800
C1441       C  0.62916125  0.75560574  0.29655485    -0.25100
C1442       C  0.63767114  0.77639458  0.29074121    -0.24400
C1443       C  0.62303078  0.79458893  0.29118767     0.40200
C1444       C  0.60068793  0.79174773  0.29761404    -0.26900
O1445       O  0.59927087  0.73214014  0.30759835    -0.58700
H1446       H  0.63969924  0.74122141  0.29613712     0.15800
O1447       O  0.63042164  0.81528696  0.28598017    -0.60200
H1448       H  0.58977142  0.80585710  0.29820386     0.14300
H1449       H  0.50778840  0.78422852  0.28857669     0.46100
H1450       H  0.59261218  0.72667372  0.29361471     0.41500
H1451       H  0.62513699  0.81807482  0.27063416     0.45000
H1452       H  0.58399149  0.74118395  0.34894630     0.36500
C1453       C  0.74409316  0.64193738  0.27524761    -0.27800
C1454       C  0.73662745  0.63704793  0.29678098     0.01800
C1455       C  0.73630455  0.65375535  0.31278951     0.29900
C1456       C  0.74072672  0.67540610  0.30651470    -0.19600
C1457       C  0.74600905  0.68063607  0.28451726    -0.29000
C1458       C  0.74901449  0.66363697  0.26909388     0.43900
C1459       C  0.72620905  0.61550002  0.30160863     0.05100
O1460       O  0.73115762  0.64901502  0.33447437    -0.57500
H1461       H  0.73905283  0.68830891  0.31868242     0.18100
O1462       O  0.75454809  0.66825180  0.24751961    -0.64200
H1463       H  0.74465368  0.62918781  0.26282494     0.16500
C1464       C  0.70399287  0.61455635  0.30900057     0.28800
C1465       C  0.69399716  0.59440372  0.31355999    -0.25100
C1466       C  0.70552006  0.57465420  0.31038925    -0.24400
C1467       C  0.72769679  0.57553434  0.30252345     0.40200
C1468       C  0.73781373  0.59588425  0.29808003    -0.26900
O1469       O  0.69166291  0.63330337  0.31143449    -0.58700
H1470       H  0.67690667  0.59432752  0.31928669     0.15800
O1471       O  0.73973412  0.55674069  0.29930367    -0.60200
H1472       H  0.75482147  0.59636690  0.29212209     0.14300
H1473       H  0.77106110  0.66798001  0.24717458     0.46100
H1474       H  0.68571442  0.63663691  0.29644409     0.41500
H1475       H  0.74750077  0.55399574  0.31357668     0.45000
H1476       H  0.71732209  0.65723862  0.33775697     0.36500
C1477       C  0.72949236  0.32539519  0.44011436    -0.27800
C1478       C  0.72829887  0.34062845  0.42251453     0.01800
C1479       C  0.72234738  0.36246848  0.42722043     0.29900
C1480       C  0.71579017  0.36825142  0.44856885    -0.19600
C1481       C  0.71568686  0.35278008  0.46587853    -0.29000
C1482       C  0.72358777  0.33145119  0.46177473     0.43900
C1483       C  0.73087550  0.33341657  0.39909003     0.05100
O1484       O  0.72202335  0.37816684  0.41083923    -0.57500
H1485       H  0.71024403  0.38488641  0.45150322     0.18100
O1486       O  0.72386316  0.31594546  0.47832099    -0.64200
H1487       H  0.73390513  0.30850211  0.43691245     0.16500
C1488       C  0.74913618  0.32084959  0.39192672     0.28800
C1489       C  0.75054039  0.31418836  0.36968861    -0.25100
C1490       C  0.73377914  0.31967266  0.35426068    -0.24400
C1491       C  0.71573891  0.33273018  0.36152966     0.40200
C1492       C  0.71432059  0.33910258  0.38366045    -0.26900
O1493       O  0.76597400  0.31550690  0.40636988    -0.58700
H1494       H  0.76466405  0.30440097  0.36465194     0.15800
O1495       O  0.69902523  0.33911725  0.34735618    -0.60200
H1496       H  0.69992104  0.34843232  0.38884797     0.14300
H1497       H  0.73865346  0.31753129  0.48550221     0.46100
H1498       H  0.76425055  0.29956300  0.40926375     0.41500
H1499       H  0.70414581  0.35323724  0.34087227     0.45000
H1500       H  0.73779091  0.38265224  0.40889944     0.36500
C1501       C  0.72874859  0.42124891  0.27329289    -0.27800
C1502       C  0.71147085  0.42723941  0.28757037     0.01800
C1503       C  0.69694433  0.41094737  0.29573220     0.29900
C1504       C  0.70012932  0.38897783  0.28997838    -0.19600
C1505       C  0.71775545  0.38270959  0.27605665    -0.29000
C1506       C  0.73198933  0.39926754  0.26748863     0.43900
C1507       C  0.70872096  0.45048099  0.29403451     0.05100
O1508       O  0.67906135  0.41650582  0.30867513    -0.57500
H1509       H  0.68865561  0.37684083  0.29652513     0.18100
O1510       O  0.74947153  0.39422389  0.25385969    -0.64200
H1511       H  0.74000663  0.43365111  0.26686479     0.16500
C1512       C  0.70829797  0.45637359  0.31655921     0.28800
C1513       C  0.70307600  0.47779868  0.32256010    -0.25100
C1514       C  0.69906741  0.49386083  0.30636487    -0.24400
C1515       C  0.70100333  0.48848341  0.28380919     0.40200
C1516       C  0.70578493  0.46681435  0.27774014    -0.26900
O1517       O  0.71262249  0.44120366  0.33286791    -0.58700
H1518       H  0.70189041  0.48186256  0.33998519     0.15800
O1519       O  0.69723876  0.50397876  0.26766448    -0.60200
H1520       H  0.70636356  0.46258158  0.26033328     0.14300
H1521       H  0.74392585  0.39702633  0.23860755     0.46100
H1522       H  0.72908222  0.44090157  0.33426160     0.41500
H1523       H  0.68123408  0.50251462  0.26381688     0.45000
H1524       H  0.68223354  0.41022033  0.32355075     0.36500
C1525       C  0.54751578  0.33147649  0.24962080    -0.27800
C1526       C  0.56342872  0.32637428  0.26593870     0.01800
C1527       C  0.55747378  0.32782543  0.28843878     0.29900
C1528       C  0.53645436  0.33558420  0.29438207    -0.19600
C1529       C  0.52081418  0.34171381  0.27818341    -0.29000
C1530       C  0.52631203  0.33915374  0.25559291     0.43900
C1531       C  0.58695603  0.32227953  0.25977013     0.05100
O1532       O  0.57249784  0.32253689  0.30477921    -0.57500
H1533       H  0.53251003  0.33715650  0.31181918     0.18100
O1534       O  0.51163030  0.34521815  0.23923401    -0.64200
H1535       H  0.55193185  0.33061908  0.23224615     0.16500
C1536       C  0.59339954  0.30430297  0.24672611     0.28800
C1537       C  0.61612468  0.30026327  0.24293040    -0.25100
C1538       C  0.63259961  0.31407833  0.25194663    -0.24400
C1539       C  0.62588280  0.33278398  0.26387253     0.40200
C1540       C  0.60333380  0.33663764  0.26774651    -0.26900
O1541       O  0.57776609  0.28984502  0.23889033    -0.58700
H1542       H  0.62086679  0.28573256  0.23384486     0.15800
O1543       O  0.64124642  0.34716664  0.27238354    -0.60200
H1544       H  0.59858368  0.35081282  0.27739398     0.14300
H1545       H  0.51389994  0.36122389  0.23721323     0.46100
H1546       H  0.57536019  0.29411667  0.22318372     0.41500
H1547       H  0.64400488  0.35798034  0.26035383     0.45000
H1548       H  0.56814866  0.30765053  0.30990119     0.36500
C1549       C  0.26736202  0.73481500  0.38096215    -0.27800
C1550       C  0.24956649  0.73752593  0.39574137     0.01800
C1551       C  0.23007553  0.74801074  0.38838281     0.29900
C1552       C  0.22854723  0.75563292  0.36653907    -0.19600
C1553       C  0.24618799  0.75267994  0.35151447    -0.29000
C1554       C  0.26583419  0.74227606  0.35903215     0.43900
C1555       C  0.25156444  0.72930859  0.41878361     0.05100
O1556       O  0.21223345  0.75047039  0.40229871    -0.57500
H1557       H  0.21322026  0.76343016  0.36124430     0.18100
O1558       O  0.28365439  0.73927405  0.34518723    -0.64200
H1559       H  0.28258560  0.72698040  0.38650967     0.16500
C1560       C  0.25647526  0.70715377  0.42301867     0.28800
C1561       C  0.26015910  0.69999978  0.44475695    -0.25100
C1562       C  0.25872884  0.71460402  0.46263814    -0.24400
C1563       C  0.25250219  0.73652454  0.45850703     0.40200
C1564       C  0.24921157  0.74378480  0.43665014    -0.26900
O1565       O  0.25714510  0.69229840  0.40602773    -0.58700
H1566       H  0.26434237  0.68293509  0.44761518     0.15800
O1567       O  0.25093730  0.75128338  0.47548601    -0.60200
H1568       H  0.24537326  0.76089358  0.43359239     0.14300
H1569       H  0.29259152  0.75292344  0.34634907     0.46100
H1570       H  0.27317086  0.68923284  0.40362349     0.41500
H1571       H  0.23489384  0.75163322  0.47935304     0.45000
H1572       H  0.20312127  0.73703580  0.40028019     0.36500
C1573       C  0.26539007  0.65015841  0.27332738    -0.27800
C1574       C  0.24722942  0.63645300  0.27791224     0.01800
C1575       C  0.22550293  0.64498608  0.27678099     0.29900
C1576       C  0.22228644  0.66732870  0.27189813    -0.19600
C1577       C  0.24063805  0.68131600  0.26840863    -0.29000
C1578       C  0.26230068  0.67234150  0.26871730     0.43900
C1579       C  0.25189450  0.61441046  0.28700858     0.05100
O1580       O  0.20754319  0.63205846  0.28206314    -0.57500
H1581       H  0.20553633  0.67390426  0.27184910     0.18100
O1582       O  0.28073077  0.68518949  0.26512763    -0.64200
H1583       H  0.28220181  0.64374826  0.27421828     0.16500
C1584       C  0.24668895  0.59505405  0.27551021     0.28800
C1585       C  0.25408010  0.57474138  0.28378728    -0.25100
C1586       C  0.26677191  0.57354363  0.30345936    -0.24400
C1587       C  0.27080631  0.59302308  0.31541074     0.40200
C1588       C  0.26360429  0.61310887  0.30703528    -0.26900
O1589       O  0.23505752  0.59587392  0.25592987    -0.58700
H1590       H  0.25051972  0.56005071  0.27439472     0.15800
O1591       O  0.28207483  0.59281339  0.33520959    -0.60200
H1592       H  0.26751615  0.62792739  0.31611075     0.14300
H1593       H  0.28216652  0.68625911  0.24878747     0.46100
H1594       H  0.24651583  0.59772382  0.24425032     0.41500
H1595       H  0.27053592  0.58996076  0.34661235     0.45000
H1596       H  0.20100853  0.62767800  0.26763898     0.36500
C1597       C  0.36889878  0.80317408  0.29506121    -0.27800
C1598       C  0.37613079  0.78402049  0.30593264     0.01800
C1599       C  0.36039608  0.76758242  0.31097303     0.29900
C1600       C  0.33808348  0.77019525  0.30496225    -0.19600
C1601       C  0.33066402  0.78907343  0.29360237    -0.29000
C1602       C  0.34636575  0.80584941  0.28900114     0.43900
C1603       C  0.39985641  0.78093047  0.31253560     0.05100
O1604       O  0.36672962  0.74861786  0.32158094    -0.57500
H1605       H  0.32661483  0.75701219  0.30893904     0.18100
O1606       O  0.34001034  0.82485025  0.27852452    -0.64200
H1607       H  0.38072883  0.81611265  0.29133305     0.16500
C1608       C  0.41715895  0.77982757  0.29677556     0.28800
C1609       C  0.43844376  0.77237712  0.30319652    -0.25100
C1610       C  0.44267280  0.76608726  0.32526642    -0.24400
C1611       C  0.42589049  0.76915167  0.34123391     0.40200
C1612       C  0.40477439  0.77643092  0.33483249    -0.26900
O1613       O  0.41296778  0.78426005  0.27485083    -0.58700
H1614       H  0.45120003  0.77030581  0.29071128     0.15800
O1615       O  0.42973256  0.76432527  0.36314085    -0.60200
H1616       H  0.39183273  0.77767959  0.34725113     0.14300
H1617       H  0.34238616  0.82213230  0.26251506     0.46100
H1618       H  0.41909234  0.79917041  0.27223848     0.41500
H1619       H  0.43607874  0.77794746  0.36949671     0.45000
H1620       H  0.37240917  0.73893778  0.30972103     0.36500
C1621       C  0.10794067  0.04211860  0.14599267    -0.27800
C1622       C  0.10548692  0.02404150  0.13200446     0.01800
C1623       C  0.12090364  0.00675771  0.13319762     0.29900
C1624       C  0.13900045  0.00807518  0.14775352    -0.19600
C1625       C  0.14203738  0.02658052  0.16126639    -0.29000
C1626       C  0.12591647  0.04344982  0.16064492     0.43900
C1627       C  0.08773011  0.02420932  0.11512007     0.05100
O1628       O  0.11867811  0.98874508  0.11984450    -0.57500
H1629       H  0.15095517  0.99479567  0.14803525     0.18100
O1630       O  0.12761131  0.06147865  0.17403685    -0.64200
H1631       H  0.09616186  0.05554130  0.14514120     0.16500
C1632       C  0.06518381  0.02562559  0.12109487     0.28800
C1633       C  0.04880752  0.02726362  0.10464529    -0.25100
C1634       C  0.05462761  0.02772486  0.08207403    -0.24400
C1635       C  0.07738754  0.02571217  0.07621729     0.40200
C1636       C  0.09362356  0.02401892  0.09271390    -0.26900
O1637       O  0.05901166  0.02483375  0.14296195    -0.58700
H1638       H  0.03153875  0.02839074  0.10966510     0.15800
O1639       O  0.08402911  0.02484338  0.05448401    -0.60200
H1640       H  0.11098981  0.02289924  0.08797581     0.14300
H1641       H  0.12070137  0.05697467  0.18827439     0.46100
H1642       H  0.05535635  0.04016935  0.14692125     0.41500
H1643       H  0.08967494  0.03975268  0.05094274     0.45000
H1644       H  0.10760857  0.97921268  0.12739798     0.36500
C1645       C  0.21534492  0.95425013  0.19104072    -0.27800
C1646       C  0.22012749  0.95018429  0.21340465     0.01800
C1647       C  0.21856199  0.96724767  0.22888573     0.29900
C1648       C  0.21098822  0.98789890  0.22200105    -0.19600
C1649       C  0.20451085  0.99143172  0.19987827    -0.29000
C1650       C  0.20755086  0.97469202  0.18420849     0.43900
C1651       C  0.22362049  0.92736732  0.22046056     0.05100
O1652       O  0.22320479  0.96357464  0.25086723    -0.57500
H1653       H  0.20878540  0.00067778  0.23420532     0.18100
O1654       O  0.20210311  0.97786667  0.16233256    -0.64200
H1655       H  0.21664203  0.94115896  0.17903413     0.16500
C1656       C  0.20577959  0.91251403  0.21927347     0.28800
C1657       C  0.20935935  0.89035642  0.22356330    -0.25100
C1658       C  0.23071101  0.88255218  0.22912739    -0.24400
C1659       C  0.24849801  0.89764058  0.23088456     0.40200
C1660       C  0.24482602  0.91996428  0.22661920    -0.26900
O1661       O  0.18469456  0.91964120  0.21416180    -0.58700
H1662       H  0.19525753  0.87928035  0.22252941     0.15800
O1663       O  0.26956546  0.89075775  0.23625820    -0.60200
H1664       H  0.25863901  0.93139714  0.22746613     0.14300
H1665       H  0.21552840  0.98458699  0.15554015     0.46100
H1666       H  0.18281982  0.91679760  0.19809577     0.41500
H1667       H  0.27662366  0.88702966  0.22192263     0.45000
H1668       H  0.20936401  0.95721117  0.25717313     0.36500
C1669       C  0.23355821  0.33928066  0.38214369    -0.27800
C1670       C  0.23782566  0.32257552  0.39772679     0.01800
C1671       C  0.23580235  0.30051260  0.39109408     0.29900
C1672       C  0.23050455  0.29550033  0.36900762    -0.19600
C1673       C  0.22774288  0.31227210  0.35321599    -0.29000
C1674       C  0.22878146  0.33425996  0.36001679     0.43900
C1675       C  0.24634759  0.32840871  0.42013251     0.05100
O1676       O  0.24020464  0.28377326  0.40573414    -0.57500
H1677       H  0.22992347  0.27849092  0.36391916     0.18100
O1678       O  0.22591438  0.35096214  0.34496337    -0.64200
H1679       H  0.23470556  0.35632390  0.38699831     0.16500
C1680       C  0.26564665  0.34135592  0.42232281     0.28800
C1681       C  0.27402929  0.34636125  0.44335155    -0.25100
C1682       C  0.26341636  0.33887954  0.46279523    -0.24400
C1683       C  0.24382471  0.32610602  0.46054345     0.40200
C1684       C  0.23559600  0.32084700  0.43937272    -0.26900
O1685       O  0.27708194  0.34835362  0.40391172    -0.58700
H1686       H  0.28909023  0.35612781  0.44427834     0.15800
O1687       O  0.23274120  0.31829499  0.47879505    -0.60200
H1688       H  0.22067138  0.31092001  0.43797814     0.14300
H1689       H  0.20969488  0.35401257  0.34498483     0.46100
H1690       H  0.27348392  0.36415451  0.40233078     0.41500
H1691       H  0.22119692  0.32944976  0.48195759     0.45000
H1692       H  0.25611318  0.28009897  0.40340769     0.36500
C1693       C  0.36357396  0.32816589  0.23250719    -0.27800
C1694       C  0.37322893  0.33207545  0.25335004     0.01800
C1695       C  0.36056467  0.32832350  0.27256329     0.29900
C1696       C  0.33852900  0.32124703  0.27091833    -0.19600
C1697       C  0.32855572  0.31739872  0.25019310    -0.29000
C1698       C  0.34134240  0.32092380  0.23081479     0.43900
C1699       C  0.39634980  0.34037280  0.25564130     0.05100
O1700       O  0.36970299  0.33146910  0.29317059    -0.57500
H1701       H  0.32932586  0.31845058  0.28609998     0.18100
O1702       O  0.33229272  0.31763204  0.21020258    -0.64200
H1703       H  0.37316822  0.33102579  0.21757716     0.16500
C1704       C  0.41481039  0.32684731  0.25146829     0.28800
C1705       C  0.43611894  0.33315079  0.25880578    -0.25100
C1706       C  0.43927685  0.35289849  0.27042369    -0.24400
C1707       C  0.42091585  0.36715591  0.27288842     0.40200
C1708       C  0.39977000  0.36081060  0.26558870    -0.26900
O1709       O  0.41189841  0.30663691  0.24203036    -0.58700
H1710       H  0.44990170  0.32195764  0.25654260     0.15800
O1711       O  0.42313209  0.38697192  0.28330496    -0.60200
H1712       H  0.38569556  0.37143394  0.26876264     0.14300
H1713       H  0.32430246  0.33141857  0.20657987     0.46100
H1714       H  0.41396166  0.30909418  0.22590361     0.41500
H1715       H  0.42990866  0.39691070  0.27212306     0.45000
H1716       H  0.37604685  0.31704860  0.29746381     0.36500
C1717       C  0.27538712  0.41277320  0.27599916    -0.27800
C1718       C  0.25773226  0.42781178  0.27628812     0.01800
C1719       C  0.23618008  0.42084149  0.27046761     0.29900
C1720       C  0.23227381  0.39876394  0.26573314    -0.19600
C1721       C  0.24965449  0.38340872  0.26694373    -0.29000
C1722       C  0.27147600  0.39065548  0.27146037     0.43900
C1723       C  0.26163433  0.45005237  0.28493918     0.05100
O1724       O  0.21868668  0.43527385  0.27027003    -0.57500
H1725       H  0.21543076  0.39348794  0.26201785     0.18100
O1726       O  0.28909454  0.37635776  0.27095870    -0.64200
H1727       H  0.29215531  0.41811650  0.27996234     0.16500
C1728       C  0.27026228  0.45265964  0.30643493     0.28800
C1729       C  0.27473527  0.47355840  0.31443235    -0.25100
C1730       C  0.27056754  0.49228315  0.30138211    -0.24400
C1731       C  0.26087713  0.48974322  0.28022752     0.40200
C1732       C  0.25659467  0.46865149  0.27208639    -0.26900
O1733       O  0.27460038  0.43481532  0.31971816    -0.58700
H1734       H  0.28173964  0.47505510  0.33092298     0.15800
O1735       O  0.25673440  0.50757274  0.26690511    -0.60200
H1736       H  0.24978798  0.46678771  0.25555435     0.14300
H1737       H  0.29301152  0.37355647  0.28670005     0.46100
H1738       H  0.25997610  0.43048323  0.32600600     0.41500
H1739       H  0.24058152  0.51050484  0.26855513     0.45000
H1740       H  0.21327072  0.43564545  0.28578006     0.36500
C1741       C  0.24806377  0.24249010  0.11962278    -0.27800
C1742       C  0.22883225  0.23103640  0.11299276     0.01800
C1743       C  0.21245771  0.22614729  0.12896163     0.29900
C1744       C  0.21528808  0.23276384  0.15087067    -0.19600
C1745       C  0.23418189  0.24479545  0.15760446    -0.29000
C1746       C  0.25082714  0.24937983  0.14167973     0.43900
C1747       C  0.22522773  0.22475065  0.08942802     0.05100
O1748       O  0.19319722  0.21538485  0.12323559    -0.57500
H1749       H  0.20215739  0.22878471  0.16251284     0.18100
O1750       O  0.26951355  0.26112654  0.14719590    -0.64200
H1751       H  0.26094514  0.24622265  0.10763431     0.16500
C1752       C  0.22597764  0.24044004  0.07215691     0.28800
C1753       C  0.21894497  0.23477923  0.05069091    -0.25100
C1754       C  0.21085698  0.21363331  0.04621880    -0.24400
C1755       C  0.21123545  0.19768523  0.06323489     0.40200
C1756       C  0.21871347  0.20320481  0.08445643    -0.26900
O1757       O  0.23183131  0.26174932  0.07646213    -0.58700
H1758       H  0.21863914  0.24727697  0.03785456     0.15800
O1759       O  0.20431059  0.17659672  0.05926775    -0.60200
H1760       H  0.21854983  0.19076484  0.09735794     0.14300
H1761       H  0.28051775  0.25002628  0.15217279     0.46100
H1762       H  0.24732411  0.26327890  0.07098786     0.41500
H1763       H  0.18922705  0.17549967  0.06587476     0.45000
H1764       H  0.18314816  0.22691881  0.11732722     0.36500
C1765       C  0.21013881  0.09535468  0.23274768    -0.27800
C1766       C  0.20361087  0.11380186  0.22036960     0.01800
C1767       C  0.19277594  0.11098815  0.19992308     0.29900
C1768       C  0.18798388  0.08995312  0.19233995    -0.19600
C1769       C  0.19375735  0.07137978  0.20493722    -0.29000
C1770       C  0.20512006  0.07417662  0.22524458     0.43900
C1771       C  0.20759538  0.13611613  0.22878393     0.05100
O1772       O  0.18728268  0.12879356  0.18701546    -0.57500
H1773       H  0.17961669  0.08822182  0.17650905     0.18100
O1774       O  0.21079291  0.05646160  0.23816734    -0.64200
H1775       H  0.21855261  0.09741125  0.24851104     0.16500
C1776       C  0.18952713  0.15018935  0.23282918     0.28800
C1777       C  0.19333898  0.17227852  0.23747827    -0.25100
C1778       C  0.21511764  0.18048299  0.23879894    -0.24400
C1779       C  0.23327311  0.16613173  0.23581487     0.40200
C1780       C  0.22941399  0.14405626  0.23084644    -0.26900
O1781       O  0.16804870  0.14254533  0.23176742    -0.58700
H1782       H  0.17924371  0.18301079  0.24014007     0.15800
O1783       O  0.25479858  0.17368108  0.23687134    -0.60200
H1784       H  0.24342285  0.13333754  0.22773432     0.14300
H1785       H  0.19800709  0.05425118  0.24832747     0.46100
H1786       H  0.16452096  0.13755855  0.24703793     0.41500
H1787       H  0.25797237  0.17974356  0.22191336     0.45000
H1788       H  0.17087867  0.13023141  0.18824182     0.36500
C1789       C  0.95394430  0.14337105  0.15914906    -0.27800
C1790       C  0.97252136  0.14082279  0.14541428     0.01800
C1791       C  0.99268932  0.15116030  0.15113871     0.29900
C1792       C  0.99393753  0.16426796  0.17006273    -0.19600
C1793       C  0.97526230  0.16720891  0.18378211    -0.29000
C1794       C  0.95513927  0.15637131  0.17817192     0.43900
C1795       C  0.97102718  0.12687897  0.12544775     0.05100
O1796       O  0.01138165  0.14834537  0.13844237    -0.57500
H1797       H  0.00963447  0.17218881  0.17390999     0.18100
O1798       O  0.93663796  0.15784618  0.19136865    -0.64200
H1799       H  0.93838232  0.13529645  0.15505169     0.16500
C1800       C  0.96548372  0.10452756  0.12722133     0.28800
C1801       C  0.96631501  0.09114120  0.10849701    -0.25100
C1802       C  0.97243281  0.09971993  0.08763511    -0.24400
C1803       C  0.97663061  0.12247253  0.08571330     0.40200
C1804       C  0.97615957  0.13574964  0.10457100    -0.26900
O1805       O  0.95978935  0.09547898  0.14730158    -0.58700
H1806       H  0.96244390  0.07387581  0.11045999     0.15800
O1807       O  0.98217386  0.13182009  0.06574232    -0.60200
H1808       H  0.98010101  0.15303619  0.10294627     0.14300
H1809       H  0.92739146  0.16954793  0.18455163     0.46100
H1810       H  0.97400914  0.09032960  0.15388573     0.41500
H1811       H  0.96790171  0.13718035  0.05943342     0.45000
H1812       H  0.01842847  0.13475912  0.14420744     0.36500
C1813       C  0.90109036  0.19932324  0.25436236    -0.27800
C1814       C  0.89638564  0.22163243  0.25751395     0.01800
C1815       C  0.91373652  0.23712970  0.25507025     0.29900
C1816       C  0.93495105  0.23029896  0.24830504    -0.19600
C1817       C  0.93892511  0.20821237  0.24326779    -0.29000
C1818       C  0.92198505  0.19261139  0.24699066     0.43900
C1819       C  0.87288449  0.22855336  0.26075432     0.05100
O1820       O  0.90983580  0.25908682  0.25792247    -0.57500
H1821       H  0.94783699  0.24247868  0.24553778     0.18100
O1822       O  0.92537388  0.17081507  0.24261629    -0.64200
H1823       H  0.88814497  0.18710748  0.25663966     0.16500
C1824       C  0.85616168  0.22094994  0.24625905     0.28800
C1825       C  0.83425334  0.22794801  0.24872712    -0.25100
C1826       C  0.82832162  0.24313188  0.26517165    -0.24400
C1827       C  0.84501779  0.25071431  0.27979521     0.40200
C1828       C  0.86704663  0.24326590  0.27762328    -0.26900
O1829       O  0.86110632  0.20709646  0.22911055    -0.58700
H1830       H  0.82193646  0.22176976  0.23717426     0.15800
O1831       O  0.84020110  0.26573585  0.29590214    -0.60200
H1832       H  0.87965440  0.24922348  0.28897793     0.14300
H1833       H  0.93434684  0.16521183  0.25524536     0.46100
H1834       H  0.86761006  0.21659570  0.21738504     0.41500
H1835       H  0.84328568  0.28024274  0.28903075     0.45000
H1836       H  0.90381853  0.26433570  0.24351996     0.36500
C1837       C  0.09485578  0.24051811  0.26922438    -0.27800
C1838       C  0.08592507  0.23907928  0.24774657     0.01800
C1839       C  0.09855465  0.24658237  0.22962988     0.29900
C1840       C  0.12021791  0.25429744  0.23296652    -0.19600
C1841       C  0.12973639  0.25467759  0.25427810    -0.29000
C1842       C  0.11666446  0.24821463  0.27258259     0.43900
C1843       C  0.06368462  0.22921745  0.24409223     0.05100
O1844       O  0.08963684  0.24677658  0.20864866    -0.57500
H1845       H  0.12974658  0.25969512  0.21870237     0.18100
O1846       O  0.12526959  0.24856264  0.29365494    -0.64200
H1847       H  0.08516774  0.23496810  0.28331824     0.16500
C1848       C  0.06127576  0.21049726  0.23078362     0.28800
C1849       C  0.04006506  0.20245240  0.22578259    -0.25100
C1850       C  0.02081503  0.21263710  0.23406545    -0.24400
C1851       C  0.02335666  0.23090793  0.24821873     0.40200
C1852       C  0.04468776  0.23902350  0.25309687    -0.26900
O1853       O  0.07959992  0.20011790  0.22229867    -0.58700
H1854       H  0.03877477  0.18818508  0.21523661     0.15800
O1855       O  0.00518805  0.24166919  0.25650758    -0.60200
H1856       H  0.04636977  0.25343082  0.26340407     0.14300
H1857       H  0.13102634  0.23354436  0.29633270     0.46100
H1858       H  0.08326825  0.18843296  0.23319986     0.41500
H1859       H  0.00317349  0.23571748  0.27170617     0.45000
H1860       H  0.09760331  0.23513268  0.20045735     0.36500
C1861       C  0.73381423  0.96434241  0.22019593    -0.27800
C1862       C  0.74735660  0.94561562  0.21891423     0.01800
C1863       C  0.77003147  0.94820347  0.21362696     0.29900
C1864       C  0.77851933  0.96884230  0.20819078    -0.19600
C1865       C  0.76492798  0.98755487  0.20832722    -0.29000
C1866       C  0.74249970  0.98528312  0.21512533     0.43900
C1867       C  0.73811008  0.92314155  0.22187421     0.05100
O1868       O  0.78403405  0.93045898  0.21330392    -0.57500
H1869       H  0.79592800  0.97012745  0.20365849     0.18100
O1870       O  0.72861107  0.00309378  0.21557850    -0.64200
H1871       H  0.71636119  0.96264826  0.22441652     0.16500
C1872       C  0.72873281  0.91602376  0.24208083     0.28800
C1873       C  0.72411002  0.89363391  0.24550358    -0.25100
C1874       C  0.72912525  0.87813007  0.22907783    -0.24400
C1875       C  0.73701661  0.88555770  0.20836797     0.40200
C1876       C  0.74118651  0.90786294  0.20485210    -0.26900
O1877       O  0.72519430  0.93054329  0.25898162    -0.58700
H1878       H  0.71800016  0.88823642  0.26152016     0.15800
O1879       O  0.74096148  0.87105961  0.19151014    -0.60200
H1880       H  0.74794138  0.91314249  0.18904880     0.14300
H1881       H  0.72822942  0.00765441  0.23132623     0.46100
H1882       H  0.73995301  0.93257063  0.26611496     0.41500
H1883       H  0.75733465  0.86889441  0.19139659     0.45000
H1884       H  0.78981368  0.92912118  0.22866471     0.36500
C1885       C  0.77623714  0.14971536  0.23375836    -0.27800
C1886       C  0.75862720  0.13451799  0.23330485     0.01800
C1887       C  0.73721930  0.14129822  0.23974563     0.29900
C1888       C  0.73346250  0.16318799  0.24562297    -0.19600
C1889       C  0.75081684  0.17870127  0.24492084    -0.29000
C1890       C  0.77249855  0.17161106  0.23956630     0.43900
C1891       C  0.76248301  0.11205077  0.22479791     0.05100
O1892       O  0.71967228  0.12685563  0.23948531    -0.57500
H1893       H  0.71669993  0.16823913  0.24977972     0.18100
O1894       O  0.79012052  0.18597416  0.23974055    -0.64200
H1895       H  0.79290325  0.14463498  0.22926352     0.16500
C1896       C  0.77052692  0.10898084  0.20316613     0.28800
C1897       C  0.77430256  0.08780097  0.19528026    -0.25100
C1898       C  0.77031816  0.06924789  0.20869435    -0.24400
C1899       C  0.76185885  0.07231429  0.23024840     0.40200
C1900       C  0.75793031  0.09359721  0.23810422    -0.26900
O1901       O  0.77407780  0.12660669  0.18935833    -0.58700
H1902       H  0.78056700  0.08593525  0.17856661     0.15800
O1903       O  0.75800513  0.05475357  0.24402099    -0.60200
H1904       H  0.75173594  0.09573142  0.25480248     0.14300
H1905       H  0.79576071  0.18573248  0.25520732     0.46100
H1906       H  0.79043272  0.12894647  0.18937308     0.41500
H1907       H  0.77222205  0.05242637  0.25209732     0.45000
H1908       H  0.71349155  0.12779221  0.22424957     0.36500
C1909       C  0.84860315  0.00725660  0.14051572    -0.27800
C1910       C  0.85518676  0.02700471  0.13041995     0.01800
C1911       C  0.84445286  0.04656755  0.13634667     0.29900
C1912       C  0.82715511  0.04616325  0.15182664    -0.19600
C1913       C  0.82011722  0.02636349  0.16176092    -0.29000
C1914       C  0.83125371  0.00677587  0.15603746     0.43900
C1915       C  0.87262048  0.02692087  0.11305990     0.05100
O1916       O  0.85065914  0.06619052  0.12696618    -0.57500
H1917       H  0.81910785  0.06150890  0.15585200     0.18100
O1918       O  0.82521351  0.98699969  0.16516773    -0.64200
H1919       H  0.85667673  0.99205244  0.13600649     0.16500
C1920       C  0.89435242  0.01965655  0.11769797     0.28800
C1921       C  0.91049046  0.01970613  0.10094692    -0.25100
C1922       C  0.90529437  0.02671779  0.07925074    -0.24400
C1923       C  0.88332017  0.03375162  0.07465777     0.40200
C1924       C  0.86732300  0.03396209  0.09152479    -0.26900
O1925       O  0.90021049  0.01339979  0.13879531    -0.58700
H1926       H  0.92717644  0.01427790  0.10504773     0.15800
O1927       O  0.87744256  0.04130344  0.05401073    -0.60200
H1928       H  0.85061565  0.03956715  0.08773870     0.14300
H1929       H  0.83434657  0.98555445  0.17881533     0.46100
H1930       H  0.90060835  0.99714556  0.13852549     0.41500
H1931       H  0.87016027  0.02867740  0.04662534     0.45000
H1932       H  0.86212527  0.07227791  0.13708394     0.36500
C1933       C  0.06520626  0.78876859  0.16654583    -0.27800
C1934       C  0.07062645  0.78226642  0.18825200     0.01800
C1935       C  0.05377360  0.78226648  0.20453345     0.29900
C1936       C  0.03221001  0.78959132  0.19912563    -0.19600
C1937       C  0.02732314  0.79740459  0.17771722    -0.29000
C1938       C  0.04393097  0.79644753  0.16127665     0.43900
C1939       C  0.09450574  0.77902082  0.19410987     0.05100
O1940       O  0.05871767  0.77715309  0.22615683    -0.57500
H1941       H  0.01970844  0.79043390  0.21201577     0.18100
O1942       O  0.03980590  0.80376403  0.14011982    -0.64200
H1943       H  0.07789745  0.78885633  0.15379800     0.16500
C1944       C  0.10245241  0.76020949  0.20528050     0.28800
C1945       C  0.12493912  0.75895126  0.21178880    -0.25100
C1946       C  0.13992890  0.77615023  0.20698709    -0.24400
C1947       C  0.13202703  0.79432311  0.19452673     0.40200
C1948       C  0.10964943  0.79560860  0.18840796    -0.26900
O1949       O  0.08845522  0.74300782  0.20996290    -0.58700
H1950       H  0.13051035  0.74466326  0.22098038     0.15800
O1951       O  0.14597368  0.81103228  0.18806504    -0.60200
H1952       H  0.10398139  0.81005392  0.17950736     0.14300
H1953       H  0.03249470  0.79128284  0.13252645     0.46100
H1954       H  0.08713581  0.73474760  0.19590505     0.41500
H1955       H  0.14324562  0.82308671  0.19868686     0.45000
H1956       H  0.05232046  0.76233755  0.22865118     0.36500
C1957       C  0.91926384  0.78491747  0.20871272    -0.27800
C1958       C  0.90113950  0.78802542  0.19422139     0.01800
C1959       C  0.90520405  0.79607330  0.17267860     0.29900
C1960       C  0.92666477  0.80247593  0.16650030    -0.19600
C1961       C  0.94469189  0.80027561  0.18121641    -0.29000
C1962       C  0.94098957  0.79074337  0.20223862     0.43900
C1963       C  0.87785507  0.78491915  0.20201808     0.05100
O1964       O  0.88814179  0.79819560  0.15765491    -0.57500
H1965       H  0.92919063  0.80937139  0.15009719     0.18100
O1966       O  0.95825519  0.78790222  0.21689066    -0.64200
H1967       H  0.91647704  0.77879865  0.22536690     0.16500
C1968       C  0.87028941  0.76508334  0.21143259     0.28800
C1969       C  0.84794669  0.76292407  0.21812299    -0.25100
C1970       C  0.83284657  0.78046818  0.21571695    -0.24400
C1971       C  0.84068040  0.80028990  0.20610745     0.40200
C1972       C  0.86288486  0.80236428  0.19966768    -0.26900
O1973       O  0.88437430  0.74750325  0.21341738    -0.58700
H1974       H  0.84251928  0.74749501  0.22530131     0.15800
O1975       O  0.82697665  0.81804326  0.20315394    -0.60200
H1976       H  0.86847776  0.81785900  0.19273464     0.14300
H1977       H  0.95878977  0.80158213  0.22568685     0.46100
H1978       H  0.88885296  0.74713991  0.22924763     0.41500
H1979       H  0.82074925  0.81643212  0.18800448     0.45000
H1980       H  0.88755837  0.78396540  0.14979139     0.36500
C1981       C  0.97589640  0.91597672  0.08206825    -0.27800
C1982       C  0.98436513  0.91769986  0.10362473     0.01800
C1983       C  0.99243901  0.93813079  0.11102805     0.29900
C1984       C  0.99194032  0.95644491  0.09681776    -0.19600
C1985       C  0.98357552  0.95463085  0.07509376    -0.29000
C1986       C  0.97531818  0.93413695  0.06793469     0.43900
C1987       C  0.98473155  0.89788069  0.11795767     0.05100
O1988       O  0.00088343  0.94036023  0.13204729    -0.57500
H1989       H  0.99838884  0.97198102  0.10268567     0.18100
O1990       O  0.96643799  0.93161847  0.04713872    -0.64200
H1991       H  0.96976241  0.90035944  0.07608116     0.16500
C1992       C  0.96517521  0.88564627  0.12169720     0.28800
C1993       C  0.96602781  0.86615058  0.13396949    -0.25100
C1994       C  0.98626881  0.85835079  0.14277358    -0.24400
C1995       C  0.00586191  0.87079164  0.13910673     0.40200
C1996       C  0.00491940  0.89040174  0.12690430    -0.26900
O1997       O  0.94511801  0.89254311  0.11326355    -0.58700
H1998       H  0.95070398  0.85704664  0.13641099     0.15800
O1999       O  0.02597882  0.86424805  0.14765408    -0.60200
H2000       H  0.02013446  0.89956308  0.12400264     0.14300
H2001       H  0.95045982  0.93541504  0.04866695     0.46100
H2002       H  0.93858057  0.90188416  0.12495900     0.41500
H2003       H  0.03355877  0.85656946  0.13535003     0.45000
H2004       H  0.98768979  0.94112114  0.14187267     0.36500
C2005       C  0.21860649  0.95958547  0.79801615    -0.27800
C2006       C  0.20341646  0.94246784  0.80176076     0.01800
C2007       C  0.18264524  0.94699392  0.81132476     0.29900
C2008       C  0.17745569  0.96835376  0.81747794    -0.19600
C2009       C  0.19273252  0.98559033  0.81415575    -0.29000
C2010       C  0.21343249  0.98105495  0.80414729     0.43900
C2011       C  0.20905915  0.91992809  0.79528697     0.05100
O2012       O  0.16726763  0.93062731  0.81466911    -0.57500
H2013       H  0.16133960  0.97136994  0.82489433     0.18100
O2014       O  0.22889396  0.99728719  0.80061967    -0.64200
H2015       H  0.23466121  0.95621550  0.79062376     0.16500
C2016       C  0.21374639  0.91497742  0.77308159     0.28800
C2017       C  0.21761423  0.89330230  0.76695102    -0.25100
C2018       C  0.21661805  0.87630988  0.78270889    -0.24400
C2019       C  0.21221610  0.88131479  0.80505367     0.40200
C2020       C  0.20868013  0.90308446  0.81122543    -0.26900
O2021       O  0.21315995  0.93103170  0.75706609    -0.58700
H2022       H  0.22065685  0.88969712  0.74965341     0.15800
O2023       O  0.21187533  0.86517578  0.82100497    -0.60200
H2024       H  0.20531002  0.90682031  0.82843489     0.14300
H2025       H  0.23769094  0.99800584  0.81453372     0.46100
H2026       H  0.22897223  0.93423666  0.75356968     0.41500
H2027       H  0.19587775  0.86200705  0.82362002     0.45000
H2028       H  0.15878275  0.92970051  0.80057897     0.36500
C2029       C  0.21640488  0.08921709  0.78427400    -0.27800
C2030       C  0.21413926  0.10786105  0.79757235     0.01800
C2031       C  0.20745925  0.10556864  0.81973794     0.29900
C2032       C  0.20190100  0.08498508  0.82805415    -0.19600
C2033       C  0.20258179  0.06637004  0.81445854    -0.29000
C2034       C  0.21053429  0.06846640  0.79255117     0.43900
C2035       C  0.21666917  0.12994979  0.78803378     0.05100
O2036       O  0.20519984  0.12357662  0.83307525    -0.57500
H2037       H  0.19613786  0.08377379  0.84502718     0.18100
O2038       O  0.21142743  0.05069788  0.77874766    -0.64200
H2039       H  0.22153960  0.09091631  0.76714414     0.16500
C2040       C  0.23748027  0.13792213  0.78109268     0.28800
C2041       C  0.23963791  0.15986766  0.77449117    -0.25100
C2042       C  0.22117251  0.17401978  0.77489047    -0.24400
C2043       C  0.20023218  0.16569070  0.78129065     0.40200
C2044       C  0.19807896  0.14376597  0.78756807    -0.26900
O2045       O  0.25596683  0.12477851  0.78196319    -0.58700
H2046       H  0.25590639  0.16599755  0.76974245     0.15800
O2047       O  0.18168698  0.17874205  0.78113499    -0.60200
H2048       H  0.18191185  0.13762769  0.79267973     0.14300
H2049       H  0.19707822  0.05079320  0.77056180     0.46100
H2050       H  0.25726961  0.11846331  0.76691494     0.41500
H2051       H  0.17959736  0.18323260  0.79677057     0.45000
H2052       H  0.22008443  0.12578940  0.83987077     0.36500
C2053       C  0.12897264  0.05148604  0.89164749    -0.27800
C2054       C  0.11124707  0.03651831  0.89114765     0.01800
C2055       C  0.11150336  0.01911057  0.87594343     0.29900
C2056       C  0.12942625  0.01684311  0.86150519    -0.19600
C2057       C  0.14720559  0.03181384  0.86197698    -0.29000
C2058       C  0.14697015  0.04916050  0.87733272     0.43900
C2059       C  0.09287034  0.03883548  0.90699548     0.05100
O2060       O  0.09435120  0.00422456  0.87508382    -0.57500
H2061       H  0.12925153  0.00351262  0.84970484     0.18100
O2062       O  0.16426961  0.06384137  0.87863608    -0.64200
H2063       H  0.12885690  0.06502152  0.90320554     0.16500
C2064       C  0.09718001  0.03946977  0.92986388     0.28800
C2065       C  0.07954408  0.04075929  0.94472390    -0.25100
C2066       C  0.05735829  0.04128110  0.93716712    -0.24400
C2067       C  0.05314116  0.04091046  0.91409445     0.40200
C2068       C  0.07088192  0.03981017  0.89925976    -0.26900
O2069       O  0.11850391  0.03748109  0.93787222    -0.58700
H2070       H  0.08338851  0.04078312  0.96227677     0.15800
O2071       O  0.03184952  0.04075945  0.90578371    -0.60200
H2072       H  0.06744878  0.03943670  0.88162176     0.14300
H2073       H  0.17529009  0.05689389  0.88872059     0.46100
H2074       H  0.12277891  0.05239424  0.94282528     0.41500
H2075       H  0.02813942  0.05638708  0.90306568     0.45000
H2076       H  0.09734815  0.99365427  0.88727727     0.36500
C2077       C  0.91227008  0.82403961  0.77203570    -0.27800
C2078       C  0.89660651  0.82376254  0.78930130     0.01800
C2079       C  0.90340339  0.82985098  0.81072766     0.29900
C2080       C  0.92515419  0.83736443  0.81436418    -0.19600
C2081       C  0.94057080  0.83885909  0.79689157    -0.29000
C2082       C  0.93410242  0.83153250  0.77566873     0.43900
C2083       C  0.87302691  0.81792656  0.78466976     0.05100
O2084       O  0.88898438  0.82802376  0.82827882    -0.57500
H2085       H  0.92986574  0.84232749  0.83094658     0.18100
O2086       O  0.94862787  0.83235438  0.75817182    -0.64200
H2087       H  0.90731755  0.81916395  0.75549614     0.16500
C2088       C  0.85575287  0.83291365  0.78894500     0.28800
C2089       C  0.83357538  0.82715976  0.78464452    -0.25100
C2090       C  0.82813218  0.80665252  0.77554931    -0.24400
C2091       C  0.84553777  0.79174354  0.77101562     0.40200
C2092       C  0.86771817  0.79744212  0.77561416    -0.26900
O2093       O  0.86041724  0.85341569  0.79698922    -0.58700
H2094       H  0.82063402  0.83903134  0.78801750     0.15800
O2095       O  0.84105095  0.77125530  0.76283974    -0.60200
H2096       H  0.88082472  0.78573735  0.77227011     0.14300
H2097       H  0.94758009  0.84754796  0.75230913     0.46100
H2098       H  0.86214565  0.86288458  0.78368099     0.41500
H2099       H  0.84337573  0.77250172  0.74661003     0.45000
H2100       H  0.88581851  0.84326719  0.83295485     0.36500
C2101       C  0.10325832  0.84038315  0.77037104    -0.27800
C2102       C  0.08621015  0.83202159  0.75685924     0.01800
C2103       C  0.09197197  0.81777953  0.73943244     0.29900
C2104       C  0.11427481  0.81118674  0.73668798    -0.19600
C2105       C  0.13111425  0.81867842  0.75106304    -0.29000
C2106       C  0.12541134  0.83405430  0.76754156     0.43900
C2107       C  0.06271316  0.83819927  0.76194023     0.05100
O2108       O  0.07609532  0.81090777  0.72458207    -0.57500
H2109       H  0.11826304  0.79977695  0.72359271     0.18100
O2110       O  0.14142439  0.84339440  0.78077799    -0.64200
H2111       H  0.09935383  0.85160556  0.78366388     0.16500
C2112       C  0.04592482  0.82222686  0.76520322     0.28800
C2113       C  0.02504497  0.82830589  0.77361375    -0.25100
C2114       C  0.02084081  0.85004900  0.77987256    -0.24400
C2115       C  0.03731042  0.86613098  0.77582690     0.40200
C2116       C  0.05779996  0.86020074  0.76669784    -0.26900
O2117       O  0.05019992  0.80042967  0.76180455    -0.58700
H2118       H  0.01269831  0.81567710  0.77672686     0.15800
O2119       O  0.03397112  0.88761958  0.78154839    -0.60200
H2120       H  0.07034883  0.87278494  0.76425891     0.14300
H2121       H  0.13981549  0.83615995  0.79545677     0.46100
H2122       H  0.05557706  0.79476034  0.77629508     0.41500
H2123       H  0.02410525  0.89371565  0.76984875     0.45000
H2124       H  0.07562246  0.79468852  0.72590981     0.36500
C2125       C  0.00578984  0.91458894  0.86518697    -0.27800
C2126       C  0.98598747  0.92301343  0.87378277     0.01800
C2127       C  0.96546171  0.91630646  0.86491274     0.29900
C2128       C  0.96489015  0.90103593  0.84771925    -0.19600
C2129       C  0.98470390  0.89227490  0.83902622    -0.29000
C2130       C  0.00533001  0.89945646  0.84782438     0.43900
C2131       C  0.98680933  0.93849340  0.89237194     0.05100
O2132       O  0.94588479  0.92473998  0.87283534    -0.57500
H2133       H  0.94883919  0.89608847  0.84117747     0.18100
O2134       O  0.02512359  0.89125911  0.84021471    -0.64200
H2135       H  0.02165974  0.91968584  0.87206441     0.16500
C2136       C  0.98664661  0.93081144  0.91432714     0.28800
C2137       C  0.98640392  0.94570833  0.93184338    -0.25100
C2138       C  0.98667801  0.96848216  0.92781669    -0.24400
C2139       C  0.98743896  0.97605745  0.90555479     0.40200
C2140       C  0.98742332  0.96103662  0.88810509    -0.26900
O2141       O  0.98630322  0.90873365  0.91878555    -0.58700
H2142       H  0.98590364  0.93930529  0.94861927     0.15800
O2143       O  0.98862116  0.99801623  0.90055997    -0.60200
H2144       H  0.98780173  0.96700791  0.87115424     0.14300
H2145       H  0.03090661  0.90255615  0.82981034     0.46100
H2146       H  0.00212914  0.90462541  0.92102571     0.41500
H2147       H  0.97335777  0.00219908  0.89586147     0.45000
H2148       H  0.94235893  0.91586378  0.88620518     0.36500
C2149       C  0.87109594  0.26439579  0.75221662    -0.27800
C2150       C  0.87618254  0.24336886  0.76043205     0.01800
C2151       C  0.85909975  0.22758639  0.76196113     0.29900
C2152       C  0.83707505  0.23339935  0.75727003    -0.19600
C2153       C  0.83168509  0.25480254  0.75048576    -0.29000
C2154       C  0.84897679  0.27014170  0.74714344     0.43900
C2155       C  0.89865004  0.23837464  0.76948573     0.05100
O2156       O  0.86367192  0.20664580  0.76900784    -0.57500
H2157       H  0.82400438  0.22133776  0.75973739     0.18100
O2158       O  0.84428848  0.29114478  0.74036618    -0.64200
H2159       H  0.88407518  0.27670079  0.75087297     0.16500
C2160       C  0.91774402  0.23825429  0.75604663     0.28800
C2161       C  0.93834043  0.23164388  0.76495844    -0.25100
C2162       C  0.94037224  0.22542389  0.78744089    -0.24400
C2163       C  0.92126389  0.22668211  0.80104701     0.40200
C2164       C  0.90072488  0.23288179  0.79199325    -0.26900
O2165       O  0.91622631  0.24350308  0.73396480    -0.58700
H2166       H  0.95263841  0.23097741  0.75407172     0.15800
O2167       O  0.92228330  0.22170829  0.82322201    -0.60200
H2168       H  0.88621431  0.23329659  0.80263901     0.14300
H2169       H  0.84114159  0.29933592  0.75416067     0.46100
H2170       H  0.92008779  0.25930337  0.73303420     0.41500
H2171       H  0.92514173  0.23589270  0.83068681     0.45000
H2172       H  0.86770293  0.19854399  0.75539113     0.36500
C2173       C  0.10506922  0.21661706  0.77031411    -0.27800
C2174       C  0.08860962  0.22477725  0.75603792     0.01800
C2175       C  0.09516389  0.23754520  0.73757725     0.29900
C2176       C  0.11778447  0.24273601  0.73431343    -0.19600
C2177       C  0.13422526  0.23522644  0.74922158    -0.29000
C2178       C  0.12756967  0.22127340  0.76683298     0.43900
C2179       C  0.06479530  0.22082744  0.76170996     0.05100
O2180       O  0.07958602  0.24556083  0.72298896    -0.57500
H2181       H  0.12232861  0.25331787  0.72056000     0.18100
O2182       O  0.14285766  0.21247330  0.78123699    -0.64200
H2183       H  0.10047296  0.20699737  0.78475157     0.16500
C2184       C  0.05721839  0.19965659  0.76758550     0.28800
C2185       C  0.03590578  0.19680738  0.77658326    -0.25100
C2186       C  0.02172951  0.21477347  0.77962339    -0.24400
C2187       C  0.02876825  0.23575089  0.77270212     0.40200
C2188       C  0.05017991  0.23867553  0.76387824    -0.26900
O2189       O  0.07056555  0.18167452  0.76450965    -0.58700
H2190       H  0.03059540  0.18053202  0.78163514     0.15800
O2191       O  0.01537968  0.25368423  0.77569462    -0.60200
H2192       H  0.05577711  0.25511220  0.75981289     0.14300
H2193       H  0.14314160  0.19660225  0.77778595     0.46100
H2194       H  0.07440756  0.17631039  0.77959381     0.41500
H2195       H  0.01816885  0.25842481  0.79115710     0.45000
H2196       H  0.07484654  0.23277187  0.71403845     0.36500
C2197       C  0.97863034  0.15058416  0.92558346    -0.27800
C2198       C  0.98324903  0.14444824  0.90366727     0.01800
C2199       C  0.98752152  0.12233389  0.89901568     0.29900
C2200       C  0.98698121  0.10665295  0.91596386    -0.19600
C2201       C  0.98217127  0.11244821  0.93804028    -0.29000
C2202       C  0.97818673  0.13482267  0.94275618     0.43900
C2203       C  0.98336396  0.16078560  0.88533491     0.05100
O2204       O  0.99215292  0.11583106  0.87778944    -0.57500
H2205       H  0.99035927  0.08977739  0.91161125     0.18100
O2206       O  0.97397165  0.14154911  0.96398278    -0.64200
H2207       H  0.97541980  0.16762954  0.92938047     0.16500
C2208       C  0.96336668  0.16952243  0.87699614     0.28800
C2209       C  0.96343010  0.18208890  0.85743087    -0.25100
C2210       C  0.98333840  0.18621050  0.84576009    -0.24400
C2211       C  0.00354507  0.17814429  0.85485419     0.40200
C2212       C  0.00335523  0.16550149  0.87433271    -0.26900
O2213       O  0.94347543  0.16458963  0.88699855    -0.58700
H2214       H  0.94766463  0.18803359  0.85107100     0.15800
O2215       O  0.02355781  0.18168930  0.84450470    -0.60200
H2216       H  0.01886189  0.15875026  0.88054110     0.14300
H2217       H  0.95750510  0.14187213  0.96520889     0.46100
H2218       H  0.94052773  0.17703791  0.89706978     0.41500
H2219       H  0.02916802  0.19575165  0.85055588     0.45000
H2220       H  0.97746282  0.11248915  0.87103592     0.36500
C2221       C  0.75536362  0.92230544  0.74671821    -0.27800
C2222       C  0.76500780  0.92852869  0.76696004     0.01800
C2223       C  0.76682649  0.91305345  0.78416524     0.29900
C2224       C  0.75993104  0.89151444  0.78081305    -0.19600
C2225       C  0.75107665  0.88472072  0.76031743    -0.29000
C2226       C  0.74828885  0.90056784  0.74332884     0.43900
C2227       C  0.77329042  0.95108035  0.77053987     0.05100
O2228       O  0.77477594  0.91907469  0.80461653    -0.57500
H2229       H  0.76175444  0.88008611  0.79450224     0.18100
O2230       O  0.73919858  0.89499455  0.72326101    -0.64200
H2231       H  0.75362000  0.93423192  0.73345037     0.16500
C2232       C  0.79574964  0.95459814  0.77624113     0.28800
C2233       C  0.80266726  0.97509979  0.78376708    -0.25100
C2234       C  0.78757621  0.99255226  0.78533695    -0.24400
C2235       C  0.76530836  0.98938475  0.77852774     0.40200
C2236       C  0.75831679  0.96870551  0.77110089    -0.26900
O2237       O  0.81085070  0.93776683  0.77542695    -0.58700
H2238       H  0.81991610  0.97727696  0.78864018     0.15800
O2239       O  0.75001310  0.00596337  0.78017261    -0.60200
H2240       H  0.74095168  0.96612331  0.76690389     0.14300
H2241       H  0.72308137  0.89824674  0.72464439     0.46100
H2242       H  0.81896207  0.93990088  0.76127699     0.41500
H2243       H  0.74445020  0.00514629  0.79562514     0.45000
H2244       H  0.78960226  0.91204830  0.80602216     0.36500
C2245       C  0.76262659  0.10004967  0.77389187    -0.27800
C2246       C  0.77861737  0.11690718  0.77440780     0.01800
C2247       C  0.80088423  0.11175356  0.77946521     0.29900
C2248       C  0.80665340  0.09033392  0.78521874    -0.19600
C2249       C  0.79052554  0.07363116  0.78588553    -0.29000
C2250       C  0.76846137  0.07845416  0.77953745     0.43900
C2251       C  0.77169628  0.14007349  0.77201536     0.05100
O2252       O  0.81698264  0.12775693  0.77970552    -0.57500
H2253       H  0.82378807  0.08688133  0.78970376     0.18100
O2254       O  0.75215473  0.06270030  0.78066198    -0.64200
H2255       H  0.74537561  0.10384142  0.77023938     0.16500
C2256       C  0.76025031  0.14765668  0.75313357     0.28800
C2257       C  0.75364819  0.16963355  0.75174396    -0.25100
C2258       C  0.75841246  0.18442666  0.76899461    -0.24400
C2259       C  0.76997906  0.17669850  0.78787203     0.40200
C2260       C  0.77637129  0.15471374  0.78926895    -0.26900
O2261       O  0.75555143  0.13377427  0.73592606    -0.58700
H2262       H  0.74498098  0.17513990  0.73696341     0.15800
O2263       O  0.77433534  0.19019796  0.80547923    -0.60200
H2264       H  0.78482982  0.14898018  0.80409016     0.14300
H2265       H  0.75039438  0.05733736  0.76527095     0.46100
H2266       H  0.76855196  0.13491617  0.72586949     0.41500
H2267       H  0.79019485  0.19450811  0.80386525     0.45000
H2268       H  0.82301478  0.12814752  0.76442191     0.36500
C2269       C  0.86512754  0.04835619  0.86017465    -0.27800
C2270       C  0.86638391  0.02980269  0.87397492     0.01800
C2271       C  0.85249003  0.01169068  0.86956809     0.29900
C2272       C  0.83744778  0.01245819  0.85181364    -0.19600
C2273       C  0.83601187  0.03112092  0.83807646    -0.29000
C2274       C  0.85031798  0.04906630  0.84227132     0.43900
C2275       C  0.88203689  0.02974294  0.89304719     0.05100
O2276       O  0.85344178  0.99315388  0.88252204    -0.57500
H2277       H  0.82669698  0.99845468  0.84897087     0.18100
O2278       O  0.85003799  0.06743444  0.82903814    -0.64200
H2279       H  0.87553928  0.06251858  0.86341902     0.16500
C2280       C  0.90468499  0.03486084  0.89007756     0.28800
C2281       C  0.91898810  0.03563691  0.90836388    -0.25100
C2282       C  0.91115648  0.03160735  0.93003496    -0.24400
C2283       C  0.88845752  0.02611271  0.93289513     0.40200
C2284       C  0.87417399  0.02520228  0.91449338    -0.26900
O2285       O  0.91315034  0.03843213  0.86924300    -0.58700
H2286       H  0.93633771  0.03957128  0.90540153     0.15800
O2287       O  0.88005538  0.02121490  0.95345727    -0.60200
H2288       H  0.85675157  0.02129219  0.91705472     0.14300
H2289       H  0.86154889  0.06481939  0.81759305     0.46100
H2290       H  0.91612593  0.05442276  0.86834732     0.41500
H2291       H  0.87289851  0.03492387  0.95856773     0.45000
H2292       H  0.86653573  0.98490417  0.87708394     0.36500
C2293       C  0.20287917  0.82948570  0.12014094    -0.27800
C2294       C  0.22158984  0.83017568  0.10630406     0.01800
C2295       C  0.24232296  0.82330645  0.11462716     0.29900
C2296       C  0.24412481  0.81593657  0.13663447    -0.19600
C2297       C  0.22536353  0.81516313  0.15062406    -0.29000
C2298       C  0.20458217  0.82205164  0.14207963     0.43900
C2299       C  0.21893760  0.83817163  0.08324870     0.05100
O2300       O  0.26100026  0.82444858  0.10160975    -0.57500
H2301       H  0.26032167  0.81097652  0.14280395     0.18100
O2302       O  0.18562574  0.82069783  0.15466173    -0.64200
H2303       H  0.18677308  0.83453216  0.11378611     0.16500
C2304       C  0.22023852  0.82374322  0.06516787     0.28800
C2305       C  0.21473786  0.83112939  0.04379372    -0.25100
C2306       C  0.20767221  0.85282852  0.04019208    -0.24400
C2307       C  0.20759809  0.86751675  0.05820480     0.40200
C2308       C  0.21299723  0.86008530  0.07951240    -0.26900
O2309       O  0.22593049  0.80218464  0.06836095    -0.58700
H2310       H  0.21496931  0.81957039  0.03022371     0.15800
O2311       O  0.20187393  0.88910188  0.05529475    -0.60200
H2312       H  0.21210096  0.87136799  0.09329446     0.14300
H2313       H  0.18313393  0.83575362  0.16025843     0.46100
H2314       H  0.21177886  0.79458758  0.07204844     0.41500
H2315       H  0.21571372  0.89649573  0.05025957     0.45000
H2316       H  0.26384250  0.80916861  0.09685808     0.36500
C2317       C  0.21009931  0.80348531  0.88749722    -0.27800
C2318       C  0.22616172  0.81727803  0.89683607     0.01800
C2319       C  0.24537148  0.82276548  0.88466529     0.29900
C2320       C  0.24793663  0.81492413  0.86297380    -0.19600
C2321       C  0.23112274  0.80216499  0.85314924    -0.29000
C2322       C  0.21233012  0.79611372  0.86575852     0.43900
C2323       C  0.22092923  0.82790279  0.91805209     0.05100
O2324       O  0.26128526  0.83629722  0.89356655    -0.57500
H2325       H  0.26240694  0.81981481  0.85343284     0.18100
O2326       O  0.19600873  0.78301375  0.85687950    -0.64200
H2327       H  0.19524536  0.79924107  0.89677544     0.16500
C2328       C  0.20783305  0.84693471  0.91808197     0.28800
C2329       C  0.20048319  0.85569417  0.93809557    -0.25100
C2330       C  0.20583349  0.84561175  0.95845959    -0.24400
C2331       C  0.21912743  0.82646151  0.95833140     0.40200
C2332       C  0.22658428  0.81779437  0.93818161    -0.26900
O2333       O  0.20193434  0.85695727  0.89851641    -0.58700
H2334       H  0.19042635  0.87041394  0.93756553     0.15800
O2335       O  0.22457745  0.81578223  0.97765489    -0.60200
H2336       H  0.23629848  0.80283936  0.93822095     0.14300
H2337       H  0.18306995  0.79281667  0.85437755     0.46100
H2338       H  0.18741376  0.85033870  0.89436820     0.41500
H2339       H  0.21214823  0.80536949  0.98037037     0.45000
H2340       H  0.25703375  0.85130438  0.88877555     0.36500
C2341       C  0.10055967  0.96103363  0.99458540    -0.27800
C2342       C  0.09768556  0.93855204  0.99837913     0.01800
C2343       C  0.07657537  0.93054059  0.00455539     0.29900
C2344       C  0.05861849  0.94504240  0.00670528    -0.19600
C2345       C  0.06139969  0.96765186  0.00282434    -0.29000
C2346       C  0.08277565  0.97556694  0.99682256     0.43900
C2347       C  0.11724188  0.92392963  0.99701854     0.05100
O2348       O  0.07364228  0.90875242  0.00957961    -0.57500
H2349       H  0.04255953  0.93857136  0.01168812     0.18100
O2350       O  0.08643191  0.99738187  0.99239200    -0.64200
H2351       H  0.11675969  0.96737959  0.98985947     0.16500
C2352       C  0.11789863  0.90624669  0.98213060     0.28800
C2353       C  0.13645920  0.89235372  0.98182127    -0.25100
C2354       C  0.15450626  0.89590366  0.99625122    -0.24400
C2355       C  0.15418141  0.91416527  0.01043844     0.40200
C2356       C  0.13570010  0.92806034  0.01064754    -0.26900
O2357       O  0.10051908  0.90242763  0.96785927    -0.58700
H2358       H  0.13651543  0.87849766  0.97065692     0.15800
O2359       O  0.17216801  0.91895808  0.02363549    -0.60200
H2360       H  0.13562826  0.94194775  0.02177943     0.14300
H2361       H  0.09365512  0.00328276  0.00591791     0.46100
H2362       H  0.10389095  0.91133568  0.95447181     0.41500
H2363       H  0.16739209  0.91532351  0.03894967     0.45000
H2364       H  0.06517146  0.90258659  0.99692441     0.36500
C2365       C  0.72424084  0.22171586  0.07646036    -0.27800
C2366       C  0.73994830  0.22643082  0.09310302     0.01800
C2367       C  0.76272430  0.22653223  0.08777886     0.29900
C2368       C  0.76962035  0.22140492  0.06639064    -0.19600
C2369       C  0.75414408  0.21611959  0.04974256    -0.29000
C2370       C  0.73121421  0.21654330  0.05483180     0.43900
C2371       C  0.73304735  0.23106103  0.11618263     0.05100
O2372       O  0.77847324  0.23135062  0.10354474    -0.57500
H2373       H  0.78731549  0.22136256  0.06287634     0.18100
O2374       O  0.71565596  0.21055589  0.03931865    -0.64200
H2375       H  0.70664295  0.22149071  0.08039588     0.16500
C2376       C  0.72151463  0.25037743  0.12147833     0.28800
C2377       C  0.71902920  0.25650801  0.14372170    -0.25100
C2378       C  0.72792527  0.24351614  0.16091581    -0.24400
C2379       C  0.73803990  0.22336678  0.15557002     0.40200
C2380       C  0.74062548  0.21736387  0.13337131    -0.26900
O2381       O  0.71419081  0.26420053  0.10501871    -0.58700
H2382       H  0.71110648  0.27199779  0.14744997     0.15800
O2383       O  0.74598092  0.20968007  0.17188530    -0.60200
H2384       H  0.74931842  0.20230878  0.12950647     0.14300
H2385       H  0.71027288  0.22453472  0.03278645     0.46100
H2386       H  0.69815045  0.26072256  0.10317970     0.41500
H2387       H  0.73391530  0.19882953  0.17447323     0.45000
H2388       H  0.78023629  0.24751701  0.10291356     0.36500
C2389       C  0.71754574  0.24057461  0.89215922    -0.27800
C2390       C  0.73834779  0.23350596  0.90006752     0.01800
C2391       C  0.75652856  0.23309836  0.88538839     0.29900
C2392       C  0.75380080  0.23957653  0.86327300    -0.19600
C2393       C  0.73303855  0.24685326  0.85514947    -0.29000
C2394       C  0.71477624  0.24720682  0.86994588     0.43900
C2395       C  0.74118053  0.22602926  0.92342259     0.05100
O2396       O  0.77718959  0.22653986  0.89256194    -0.57500
H2397       H  0.76824375  0.23920046  0.85255571     0.18100
O2398       O  0.69401357  0.25343252  0.86282895    -0.64200
H2399       H  0.70333152  0.24071393  0.90318609     0.16500
C2400       C  0.73795598  0.24030057  0.94143843     0.28800
C2401       C  0.74340807  0.23345349  0.96309711    -0.25100
C2402       C  0.75226359  0.21246941  0.96704506    -0.24400
C2403       C  0.75440710  0.19790394  0.94905330     0.40200
C2404       C  0.74887518  0.20471194  0.92757303    -0.26900
O2405       O  0.73119102  0.26148747  0.93783993    -0.58700
H2406       H  0.74192745  0.24499644  0.97659535     0.15800
O2407       O  0.76268862  0.17715544  0.95214218    -0.60200
H2408       H  0.75124813  0.19346931  0.91393602     0.14300
H2409       H  0.69284934  0.26920160  0.86658118     0.46100
H2410       H  0.71493255  0.26139429  0.94068941     0.41500
H2411       H  0.74949260  0.16784399  0.95528198     0.45000
H2412       H  0.78366346  0.23952414  0.90005098     0.36500
C2413       C  0.86402330  0.11216574  0.00722245    -0.27800
C2414       C  0.86894439  0.13440624  0.01030404     0.01800
C2415       C  0.89110652  0.14084665  0.01416295     0.29900
C2416       C  0.90805635  0.12513171  0.01423365    -0.19600
C2417       C  0.90328452  0.10277437  0.01059288    -0.29000
C2418       C  0.88084224  0.09639980  0.00738250     0.43900
C2419       C  0.85062030  0.15052190  0.00917006     0.05100
O2420       O  0.89642493  0.16244861  0.01763988    -0.57500
H2421       H  0.92501620  0.13058662  0.01700573     0.18100
O2422       O  0.87507068  0.07493033  0.00378883    -0.64200
H2423       H  0.84694418  0.10695663  0.00465607     0.16500
C2424       C  0.83676202  0.15153733  0.99037076     0.28800
C2425       C  0.81795410  0.16497006  0.99037209    -0.25100
C2426       C  0.81254693  0.17758306  0.00901124    -0.24400
C2427       C  0.82718165  0.17743819  0.02742020     0.40200
C2428       C  0.84598127  0.16387509  0.02741543    -0.26900
O2429       O  0.84171108  0.13964149  0.97178229    -0.58700
H2430       H  0.80730645  0.16505550  0.97585078     0.15800
O2431       O  0.82322529  0.19025317  0.04559265    -0.60200
H2432       H  0.85663061  0.16334392  0.04193567     0.14300
H2433       H  0.86970473  0.06938772  0.01831388     0.46100
H2434       H  0.83092136  0.12729944  0.97167735     0.41500
H2435       H  0.83126751  0.20418818  0.04262666     0.45000
H2436       H  0.89750882  0.16909121  0.00263772     0.36500
C2437       C  0.74114776  0.79758209  0.11328013    -0.27800
C2438       C  0.76215300  0.80602945  0.10774731     0.01800
C2439       C  0.77764779  0.81036606  0.12470454     0.29900
C2440       C  0.77183350  0.80700494  0.14687585    -0.19600
C2441       C  0.75071171  0.79881314  0.15264712    -0.29000
C2442       C  0.73535165  0.79391857  0.13551638     0.43900
C2443       C  0.76767268  0.81147582  0.08446138     0.05100
O2444       O  0.79862617  0.81784504  0.11972095    -0.57500
H2445       H  0.78412185  0.81045629  0.15957669     0.18100
O2446       O  0.71459207  0.78572211  0.14024805    -0.64200
H2447       H  0.72907299  0.79421485  0.10035527     0.16500
C2448       C  0.76954415  0.79521687  0.06812966     0.28800
C2449       C  0.77729522  0.80080899  0.04689524    -0.25100
C2450       C  0.78313693  0.82259369  0.04162397    -0.24400
C2451       C  0.77994556  0.83898133  0.05775098     0.40200
C2452       C  0.77229385  0.83332178  0.07889694    -0.26900
O2453       O  0.76512270  0.77368360  0.07314568    -0.58700
H2454       H  0.77949477  0.78792437  0.03481326     0.15800
O2455       O  0.78381788  0.86065683  0.05292196    -0.60200
H2456       H  0.77035739  0.84605422  0.09120449     0.14300
H2457       H  0.70486188  0.79876441  0.14160135     0.46100
H2458       H  0.74975125  0.77105723  0.06770238     0.41500
H2459       H  0.79666789  0.86494985  0.06232652     0.45000
H2460       H  0.80747419  0.80447347  0.11671419     0.36500
C2461       C  0.76789661  0.79184926  0.93610345    -0.27800
C2462       C  0.78506372  0.78643157  0.92134507     0.01800
C2463       C  0.80738795  0.78934512  0.92816427     0.29900
C2464       C  0.81217544  0.79950042  0.94839642    -0.19600
C2465       C  0.79495587  0.80609649  0.96252933    -0.29000
C2466       C  0.77271539  0.80145060  0.95662791     0.43900
C2467       C  0.77962752  0.78144279  0.89781490     0.05100
O2468       O  0.82465429  0.78330382  0.91466503    -0.57500
H2469       H  0.82937994  0.80262197  0.95287837     0.18100
O2470       O  0.75547773  0.80754692  0.97013253    -0.64200
H2471       H  0.75064737  0.78997862  0.93115200     0.16500
C2472       C  0.76397259  0.76526886  0.89168923     0.28800
C2473       C  0.75749384  0.76311862  0.86934031    -0.25100
C2474       C  0.76614105  0.77726239  0.85294855    -0.24400
C2475       C  0.78270813  0.79261879  0.85911933     0.40200
C2476       C  0.78908419  0.79467668  0.88124874    -0.26900
O2477       O  0.75503582  0.75148457  0.90738763    -0.58700
H2478       H  0.74499117  0.75102301  0.86502905     0.15800
O2479       O  0.79240404  0.80629144  0.84376564    -0.60200
H2480       H  0.80098307  0.80734827  0.88558749     0.14300
H2481       H  0.75208908  0.82293202  0.96592302     0.46100
H2482       H  0.73946041  0.75647241  0.90939301     0.41500
H2483       H  0.80456796  0.79757746  0.83708689     0.45000
H2484       H  0.82492943  0.76704613  0.91527830     0.36500
C2485       C  0.84801661  0.90353822  0.01165746    -0.27800
C2486       C  0.86286684  0.90537122  0.99390665     0.01800
C2487       C  0.86238988  0.88938053  0.97714728     0.29900
C2488       C  0.84745489  0.87168334  0.97858288    -0.19600
C2489       C  0.83286497  0.86948806  0.99672100    -0.29000
C2490       C  0.83313456  0.88596752  0.01315826     0.43900
C2491       C  0.87955551  0.92335021  0.99398874     0.05100
O2492       O  0.87666512  0.89071957  0.95947135    -0.57500
H2493       H  0.84763531  0.85944551  0.96564374     0.18100
O2494       O  0.81920117  0.88505057  0.03107033    -0.64200
H2495       H  0.84831252  0.91556420  0.02481521     0.16500
C2496       C  0.87307125  0.94533589  0.99670733     0.28800
C2497       C  0.88919504  0.96177364  0.99891570    -0.25100
C2498       C  0.91209389  0.95682005  0.99833415    -0.24400
C2499       C  0.91851537  0.93470293  0.99529721     0.40200
C2500       C  0.90229413  0.91829606  0.99309619    -0.26900
O2501       O  0.85096325  0.95092368  0.99739137    -0.58700
H2502       H  0.88360452  0.97849101  0.00115164     0.15800
O2503       O  0.94053670  0.92884645  0.99423342    -0.60200
H2504       H  0.90755179  0.90141354  0.99128554     0.14300
H2505       H  0.80595585  0.89375821  0.02668410     0.46100
H2506       H  0.84700125  0.95490095  0.98191763     0.41500
H2507       H  0.94383651  0.92161422  0.00862806     0.45000
H2508       H  0.86911756  0.90042152  0.94856794     0.36500
loop_ 
_geom_bond_atom_site_label_1 
_geom_bond_atom_site_label_2 
_geom_bond_distance 
_geom_bond_site_symmetry_2 
_ccdc_geom_bond_type 
C1            N2   1.358       .  A
C1            N6   1.359       .  A
C1         C2450   1.486       .  S
N2            C3   1.358   1_554  A
C3            N4   1.361       .  A
C3         C2489   1.493       .  S
N4            C5   1.362       .  A
C5            N6   1.360   1_556  A
C5         C2465   1.478       .  S
C7            N8   1.367       .  A
C7           N12   1.358       .  A
C7         C2369   1.483       .  S
N8            C9   1.367   1_554  A
C9           N10   1.357       .  A
C9         C2402   1.485       .  S
N10          C11   1.354   1_556  A
C11          N12   1.352       .  A
C11        C2426   1.483       .  S
C13          N14   1.360   1_554  A
C13          N18   1.357       .  A
C13        C2306   1.482       .  S
N14          C15   1.362       .  A
C15          N16   1.361       .  A
C15        C2330   1.487       .  S
N16          C17   1.356       .  A
C17          N18   1.356   1_556  A
C17        C2354   1.477       .  S
C19          N20   1.360       .  A
C19          N24   1.357       .  A
C19        C2249   1.476       .  S
N20          C21   1.361       .  A
C21          N22   1.360       .  A
C21        C2234   1.476   1_545  S
N22          C23   1.356       .  A
C23          N24   1.354       .  A
C23        C2273   1.484       .  S
C25          N26   1.362       .  A
C25          N30   1.363       .  A
C25        C2162   1.495       .  S
N26          C27   1.360   1_655  A
C27          N28   1.357       .  A
C27        C2186   1.476       .  S
N28          C29   1.357   1_455  A
C29          N30   1.361       .  A
C29        C2210   1.497       .  S
C31          N32   1.359       .  A
C31          N36   1.363       .  A
C31        C2081   1.486       .  S
N32          C33   1.356       .  A
C33          N34   1.356   1_655  A
C33        C2129   1.487       .  S
N34          C35   1.358       .  A
C35          N36   1.363   1_455  A
C35        C2114   1.484       .  S
C37          N38   1.354       .  A
C37          N42   1.359       .  A
C37        C2033   1.474       .  S
N38          C39   1.349       .  A
C39          N40   1.352       .  A
C39        C2057   1.468       .  S
N40          C41   1.357       .  A
C41          N42   1.361       .  A
C41        C2009   1.477   1_545  S
C43          N44   1.358       .  A
C43          N48   1.363       .  A
C43        C1961   1.482       .  S
N44          C45   1.356       .  A
C45          N46   1.356   1_655  A
C45        C1994   1.489       .  S
N46          C47   1.360       .  A
C47          N48   1.364   1_455  A
C47        C1937   1.481       .  S
C49          N50   1.356       .  A
C49          N54   1.365       .  A
C49        C1898   1.485       .  S
N50          C51   1.354       .  A
C51          N52   1.357       .  A
C51        C1913   1.491       .  S
N52          C53   1.362       .  A
C53          N54   1.364       .  A
C53        C1865   1.489   1_545  S
C55          N56   1.359       .  A
C55          N60   1.356       .  A
C55        C1817   1.475       .  S
N56          C57   1.362       .  A
C57          N58   1.362       .  A
C57        C1850   1.488   1_655  S
N58          C59   1.358       .  A
C59          N60   1.354       .  A
C59        C1793   1.490       .  S
Zr61         O62   2.440       .  S
Zr61         O63   2.422       .  S
Zr61         O64   2.427       .  S
Zr61         O67   2.432       .  S
Zr61         O69   2.378       .  S
Zr61         O70   2.383       .  S
Zr61         O71   2.400       .  S
Zr61         O72   2.394       .  S
O62         H118   0.990       .  S
O62         H126   0.990       .  S
O63          C83   1.283       .  A
O64          C85   1.284       .  A
O65         Zr75   2.440       .  S
O65          C84   1.286       .  A
O66         Zr74   2.443       .  S
O66          C85   1.286       .  A
O67          C84   1.285       .  A
O68         Zr76   2.414       .  S
O68          C83   1.280       .  A
O69         Zr74   2.397       .  S
O69         Zr76   2.376       .  S
O70         Zr75   2.395       .  S
O70         Zr76   2.377       .  S
O70         H105   0.966       .  S
O71         Zr74   2.402       .  S
O71         Zr91   2.395       .  S
O71         H108   0.966       .  S
O72         Zr75   2.389       .  S
O72         Zr91   2.386       .  S
Zr73         O98   2.443       .  S
Zr73         O92   2.435       .  S
Zr73        O100   2.416       .  S
Zr73         O88   2.410       .  S
Zr73         O79   2.398       .  S
Zr73         O80   2.399       .  S
Zr73         O81   2.375       .  S
Zr73         O82   2.376       .  S
Zr74         O93   2.436       .  S
Zr74         O86   2.435       .  S
Zr74         O87   2.456       .  S
Zr74         O80   2.398       .  S
Zr74         O81   2.388       .  S
Zr75         O77   2.435       .  S
Zr75         O99   2.436       .  S
Zr75        O101   2.443       .  S
Zr75         O79   2.396       .  S
Zr75         O82   2.388       .  S
Zr76        O102   2.434       .  S
Zr76        O103   2.436       .  S
Zr76         O78   2.437       .  S
Zr76         O79   2.391       .  S
Zr76         O80   2.392       .  S
O77         H114   0.990       .  S
O78         H109   0.990       .  S
O78         H123   0.990       .  S
O80         H106   0.966       .  S
O81         Zr91   2.378       .  S
O82         Zr91   2.380       .  S
O82         H107   0.966       .  S
C83        C1721   1.471       .  S
C84        C1673   1.474       .  S
C85        C1697   1.488       .  S
O86         H122   0.990       .  S
O87          C89   1.289       .  A
O88          C89   1.282       .  A
C89        C1745   1.494       .  S
O90         Zr91   2.438       .  S
O90         H119   0.990       .  S
Zr91         O94   2.436       .  S
Zr91         O95   2.441       .  S
Zr91         O96   2.408       .  S
O92          C97   1.285       .  A
O93         H110   0.990       .  S
O93         H125   0.990       .  S
O94         H111   0.990       .  S
O95         H115   0.990       .  S
O95         H124   0.990       .  S
O96          C97   1.279       .  A
C97        C1778   1.471       .  S
O98         H117   0.990       .  S
O98         H121   0.990       .  S
O99         H113   0.989       .  S
O99         H120   0.990       .  S
O100        C104   1.281       .  A
O101        C104   1.286       .  A
O102        H112   0.990       .  S
O103        H116   0.990       .  S
C104       C1841   1.481       .  S
C127        N128   1.358       .  A
C127        N132   1.357       .  A
C127       C1769   1.477       .  S
N128        C129   1.358       .  A
C129        N130   1.358       .  A
C129       C1649   1.469   1_545  S
N130        C131   1.355       .  A
C131        N132   1.354       .  A
C131       C1625   1.482       .  S
Zr133       O134   2.439       .  S
Zr133       O135   2.428       .  S
Zr133       O136   2.425       .  S
Zr133       O139   2.413       .  S
Zr133       O141   2.375       .  S
Zr133       O142   2.382       .  S
Zr133       O143   2.399       .  S
Zr133       O144   2.404       .  S
O134        H190   0.990       .  S
O134        H198   0.990       .  S
O135        C155   1.283       .  A
O136        C157   1.283       .  A
O137       Zr147   2.444       .  S
O137        C156   1.286       .  A
O138       Zr146   2.454       .  S
O138        C157   1.288       .  A
O139        C156   1.282       .  A
O140       Zr148   2.417       .  S
O140        C155   1.282       .  A
O141       Zr146   2.397       .  S
O141       Zr148   2.379       .  S
O142       Zr147   2.396       .  S
O142       Zr148   2.376       .  S
O142        H177   0.967       .  S
O143       Zr146   2.395       .  S
O143       Zr163   2.393       .  S
O143        H180   0.966       .  S
O144       Zr147   2.398       .  S
O144       Zr163   2.400       .  S
Zr145       O170   2.443       .  S
Zr145       O164   2.433       .  S
Zr145       O172   2.404       .  S
Zr145       O160   2.400       .  S
Zr145       O151   2.395       .  S
Zr145       O152   2.398       .  S
Zr145       O153   2.375       .  S
Zr145       O154   2.374       .  S
Zr146       O165   2.436       .  S
Zr146       O158   2.435       .  S
Zr146       O159   2.444       .  S
Zr146       O152   2.398       .  S
Zr146       O153   2.389       .  S
Zr147       O149   2.435       .  S
Zr147       O171   2.435       .  S
Zr147       O173   2.459       .  S
Zr147       O151   2.390       .  S
Zr147       O154   2.387       .  S
Zr148       O174   2.435       .  S
Zr148       O175   2.437       .  S
Zr148       O150   2.437       .  S
Zr148       O151   2.398       .  S
Zr148       O152   2.388       .  S
O149        H186   0.990       .  S
O150        H181   0.990       .  S
O150        H195   0.990       .  S
O152        H178   0.965       .  S
O153       Zr163   2.371       .  S
O154       Zr163   2.377       .  S
O154        H179   0.967       .  S
C155       C1553   1.484       .  S
C156       C1577   1.481       .  S
C157       C1601   1.497       .  S
O158        H194   0.990       .  S
O159        C161   1.287       .  A
O160        C161   1.281       .  A
C161       C1658   1.479       .  S
O162       Zr163   2.438       .  S
O162        H191   0.990       .  S
Zr163       O166   2.438       .  S
Zr163       O167   2.438       .  S
Zr163       O168   2.433       .  S
O164        C169   1.285       .  A
O165        H182   0.990       .  S
O165        H197   0.990       .  S
O166        H183   0.990       .  S
O167        H187   0.990       .  S
O167        H196   0.990       .  S
O168        C169   1.284       .  A
C169       C2297   1.488       .  S
O170        H189   0.991       .  S
O170        H193   0.990       .  S
O171        H185   0.990       .  S
O171        H192   0.990       .  S
O172        C176   1.280       .  A
O173        C176   1.290       .  A
O174        H184   0.990       .  S
O175        H188   0.990       .  S
C176       C1946   1.494       .  S
Zr199       O200   2.440       .  S
Zr199       O201   2.429       .  S
Zr199       O202   2.407       .  S
Zr199       O205   2.427       .  S
Zr199       O207   2.378       .  S
Zr199       O208   2.373       .  S
Zr199       O209   2.405       .  S
Zr199       O210   2.397       .  S
O200        H256   0.990       .  S
O200        H264   0.990       .  S
O201        C221   1.284       .  A
O202        C223   1.281       .  A
O203       Zr213   2.440       .  S
O203        C222   1.286       .  A
O204       Zr212   2.455       .  S
O204        C223   1.289       .  A
O205        C222   1.285       .  A
O206       Zr214   2.436       .  S
O206        C221   1.284       .  A
O207       Zr212   2.397       .  S
O207       Zr214   2.374       .  S
O208       Zr213   2.390       .  S
O208       Zr214   2.372       .  S
O208        H243   0.965       .  S
O209       Zr212   2.405       .  S
O209       Zr229   2.393       .  S
O209        H246   0.967       .  S
O210       Zr213   2.391       .  S
O210       Zr229   2.396       .  S
Zr211       O236   2.448       .  S
Zr211       O230   2.429       .  S
Zr211       O238   2.415       .  S
Zr211       O226   2.412       .  S
Zr211       O217   2.397       .  S
Zr211       O218   2.404       .  S
Zr211       O219   2.375       .  S
Zr211       O220   2.378       .  S
Zr212       O231   2.436       .  S
Zr212       O224   2.435       .  S
Zr212       O225   2.454       .  S
Zr212       O218   2.403       .  S
Zr212       O219   2.392       .  S
Zr213       O215   2.435       .  S
Zr213       O237   2.435       .  S
Zr213       O239   2.445       .  S
Zr213       O217   2.392       .  S
Zr213       O220   2.391       .  S
Zr214       O240   2.439       .  S
Zr214       O241   2.434       .  S
Zr214       O216   2.435       .  S
Zr214       O217   2.400       .  S
Zr214       O218   2.401       .  S
O215        H252   0.990       .  S
O216        H247   0.990       .  S
O216        H261   0.990       .  S
O218        H244   0.967       .  S
O219       Zr229   2.373       .  S
O220       Zr229   2.379       .  S
O220        H245   0.966       .  S
C221       C1889   1.484       .  S
C222       C2378   1.483       .  S
C223       C1826   1.489       .  S
O224        H260   0.990       .  S
O225        C227   1.289       .  A
O226        C227   1.280       .  A
C227       C1490   1.494       .  S
O228       Zr229   2.438       .  S
O228        H257   0.989       .  S
Zr229       O232   2.439       .  S
Zr229       O233   2.438       .  S
Zr229       O234   2.428       .  S
O230        C235   1.284       .  A
O231        H248   0.990       .  S
O231        H263   0.990       .  S
O232        H249   0.990       .  S
O233        H253   0.990       .  S
O233        H262   0.990       .  S
O234        C235   1.282       .  A
C235       C1505   1.491       .  S
O236        H255   0.990       .  S
O236        H259   0.990       .  S
O237        H251   0.990       .  S
O237        H258   0.990       .  S
O238        C242   1.282       .  A
O239        C242   1.287       .  A
O240        H250   0.990       .  S
O241        H254   0.990       .  S
C242       C1538   1.484       .  S
Zr265       O266   2.439       .  S
Zr265       O267   2.418       .  S
Zr265       O268   2.431       .  S
Zr265       O271   2.428       .  S
Zr265       O273   2.378       .  S
Zr265       O274   2.383       .  S
Zr265       O275   2.402       .  S
Zr265       O276   2.394       .  S
O266        H322   0.990       .  S
O266        H330   0.990       .  S
O267        C287   1.281       .  A
O268        C289   1.284       .  A
O269       Zr279   2.439       .  S
O269        C288   1.286       .  A
O270       Zr278   2.425       .  S
O270        C289   1.282       .  A
O271        C288   1.286       .  A
O272       Zr280   2.431       .  S
O272        C287   1.284       .  A
O273       Zr278   2.400       .  S
O273       Zr280   2.376       .  S
O274       Zr279   2.392       .  S
O274       Zr280   2.376       .  S
O274        H309   0.967       .  S
O275       Zr278   2.406       .  S
O275       Zr295   2.394       .  S
O275        H312   0.965       .  S
O276       Zr279   2.394       .  S
O276       Zr295   2.392       .  S
Zr277       O302   2.440       .  S
Zr277       O296   2.436       .  S
Zr277       O304   2.424       .  S
Zr277       O292   2.416       .  S
Zr277       O283   2.400       .  S
Zr277       O284   2.400       .  S
Zr277       O285   2.372       .  S
Zr277       O286   2.377       .  S
Zr278       O297   2.437       .  S
Zr278       O290   2.435       .  S
Zr278       O291   2.446       .  S
Zr278       O284   2.392       .  S
Zr278       O285   2.388       .  S
Zr279       O281   2.434       .  S
Zr279       O303   2.438       .  S
Zr279       O305   2.442       .  S
Zr279       O283   2.396       .  S
Zr279       O286   2.391       .  S
Zr280       O306   2.436       .  S
Zr280       O307   2.436       .  S
Zr280       O282   2.438       .  S
Zr280       O283   2.401       .  S
Zr280       O284   2.396       .  S
O281        H318   0.990       .  S
O282        H313   0.990       .  S
O282        H327   0.990       .  S
O284        H310   0.966       .  S
O285       Zr295   2.377       .  S
O286       Zr295   2.382       .  S
O286        H311   0.966       .  S
C287       C1418   1.486       .  S
C288       C1442   1.495       .  S
C289       C1457   1.470       .  S
O290        H326   0.990       .  S
O291        C293   1.287       .  A
O292        C293   1.282       .  A
C293       C1970   1.494       .  S
O294       Zr295   2.440       .  S
O294        H323   0.990       .  S
Zr295       O298   2.436       .  S
Zr295       O299   2.439       .  S
Zr295       O300   2.420       .  S
O296        C301   1.286       .  A
O297        H314   0.990       .  S
O297        H329   0.990       .  S
O298        H315   0.990       .  S
O299        H319   0.990       .  S
O299        H328   0.990       .  S
O300        C301   1.282       .  A
C301       C2441   1.486       .  S
O302        H321   0.990       .  S
O302        H325   0.990       .  S
O303        H317   0.990       .  S
O303        H324   0.990       .  S
O304        C308   1.283       .  A
O305        C308   1.285       .  A
O306        H316   0.990       .  S
O307        H320   0.990       .  S
C308       C1874   1.482       .  S
C331        N332   1.357       .  A
C331        N336   1.362       .  A
C331       C1754   1.481       .  S
N332        C333   1.356       .  A
C333        N334   1.358   1_554  A
C333       C1361   1.494       .  S
N334        C335   1.363       .  A
C335        N336   1.364   1_556  A
C335       C1394   1.488       .  S
Zr337       O338   2.442       .  S
Zr337       O339   2.421       .  S
Zr337       O340   2.427       .  S
Zr337       O343   2.423       .  S
Zr337       O345   2.379       .  S
Zr337       O346   2.380       .  S
Zr337       O347   2.402       .  S
Zr337       O348   2.396       .  S
O338        H394   0.990       .  S
O338        H402   0.990       .  S
O339        C359   1.282       .  A
O340        C361   1.283       .  A
O341       Zr351   2.452       .  S
O341        C360   1.288       .  A
O342       Zr350   2.452       .  S
O342        C361   1.288       .  A
O343        C360   1.284       .  A
O344       Zr352   2.417       .  S
O344        C359   1.280       .  A
O345       Zr350   2.401       .  S
O345       Zr352   2.379       .  S
O346       Zr351   2.395       .  S
O346       Zr352   2.377       .  S
O346        H381   0.966       .  S
O347       Zr350   2.406       .  S
O347       Zr367   2.394       .  S
O347        H384   0.965       .  S
O348       Zr351   2.402       .  S
O348       Zr367   2.392       .  S
Zr349       O374   2.446       .  S
Zr349       O368   2.429       .  S
Zr349       O376   2.416       .  S
Zr349       O364   2.422       .  S
Zr349       O355   2.398       .  S
Zr349       O356   2.401       .  S
Zr349       O357   2.375       .  S
Zr349       O358   2.379       .  S
Zr350       O369   2.436       .  S
Zr350       O362   2.436       .  S
Zr350       O363   2.459       .  S
Zr350       O356   2.398       .  S
Zr350       O357   2.392       .  S
Zr351       O353   2.435       .  S
Zr351       O375   2.435       .  S
Zr351       O377   2.469       .  S
Zr351       O355   2.390       .  S
Zr351       O358   2.389       .  S
Zr352       O378   2.437       .  S
Zr352       O379   2.433       .  S
Zr352       O354   2.436       .  S
Zr352       O355   2.392       .  S
Zr352       O356   2.399       .  S
O353        H390   0.990       .  S
O354        H385   0.990       .  S
O354        H399   0.990       .  S
O356        H382   0.966       .  S
O357       Zr367   2.377       .  S
O358       Zr367   2.382       .  S
O358        H383   0.967       .  S
C359       C2042   1.474       .  S
C360       C1385   1.487       .  S
C361       C2177   1.494       .  S
O362        H398   0.990       .  S
O363        C365   1.289       .  A
O364        C365   1.284       .  A
C365       C1289   1.488       .  S
O366       Zr367   2.436       .  S
O366        H395   0.990       .  S
Zr367       O370   2.436       .  S
Zr367       O371   2.436       .  S
Zr367       O372   2.417       .  S
O368        C373   1.285       .  A
O369        H386   0.990       .  S
O369        H401   0.990       .  S
O370        H387   0.990       .  S
O371        H391   0.990       .  S
O371        H400   0.990       .  S
O372        C373   1.281       .  A
C373       C1322   1.482       .  S
O374        H393   0.990       .  S
O374        H397   0.990       .  S
O375        H389   0.990       .  S
O375        H396   0.990       .  S
O376        C380   1.282       .  A
O377        C380   1.291       .  A
O378        H388   0.990       .  S
O379        H392   0.990       .  S
C380       C1337   1.492       .  S
Zr403       O404   2.438       .  S
Zr403       O405   2.415       .  S
Zr403       O406   2.415       .  S
Zr403       O409   2.414       .  S
Zr403       O411   2.377       .  S
Zr403       O412   2.380       .  S
Zr403       O413   2.401       .  S
Zr403       O414   2.394       .  S
O404        H460   0.991       .  S
O404        H468   0.990       .  S
O405        C425   1.280       .  A
O406        C427   1.281       .  A
O407       Zr417   2.453       .  S
O407        C426   1.288       .  A
O408       Zr416   2.447       .  S
O408        C427   1.286       .  A
O409        C426   1.282       .  A
O410       Zr418   2.415       .  S
O410        C425   1.280       .  A
O411       Zr416   2.391       .  S
O411       Zr418   2.376       .  S
O412       Zr417   2.395       .  S
O412       Zr418   2.377       .  S
O412        H447   0.966       .  S
O413       Zr416   2.404       .  S
O413       Zr433   2.396       .  S
O413        H450   0.966       .  S
O414       Zr417   2.394       .  S
O414       Zr433   2.395       .  S
Zr415       O440   2.445       .  S
Zr415       O434   2.427       .  S
Zr415       O442   2.424       .  S
Zr415       O430   2.416       .  S
Zr415       O421   2.394       .  S
Zr415       O422   2.397       .  S
Zr415       O423   2.378       .  S
Zr415       O424   2.376       .  S
Zr416       O435   2.436       .  S
Zr416       O428   2.435       .  S
Zr416       O429   2.442       .  S
Zr416       O422   2.399       .  S
Zr416       O423   2.394       .  S
Zr417       O419   2.434       .  S
Zr417       O441   2.436       .  S
Zr417       O443   2.452       .  S
Zr417       O421   2.396       .  S
Zr417       O424   2.392       .  S
Zr418       O444   2.437       .  S
Zr418       O445   2.436       .  S
Zr418       O420   2.439       .  S
Zr418       O421   2.394       .  S
Zr418       O422   2.394       .  S
O419        H456   0.990       .  S
O420        H451   0.990       .  S
O420        H465   0.989       .  S
O422        H448   0.966       .  S
O423       Zr433   2.375       .  S
O424       Zr433   2.377       .  S
O424        H449   0.966       .  S
C425       C2018   1.470       .  S
C426       C2105   1.491       .  S
C427       C2321   1.475       .  S
O428        H464   0.990       .  S
O429        C431   1.287       .  A
O430        C431   1.282       .  A
C431       C1241   1.492       .  S
O432       Zr433   2.436       .  S
O432        H461   0.990       .  S
Zr433       O436   2.435       .  S
Zr433       O437   2.440       .  S
Zr433       O438   2.428       .  S
O434        C439   1.284       .  A
O435        H452   0.990       .  S
O435        H467   0.990       .  S
O436        H453   0.990       .  S
O437        H457   0.990       .  S
O437        H466   0.990       .  S
O438        C439   1.284       .  A
C439       C1274   1.489       .  S
O440        H459   0.990       .  S
O440        H463   0.990       .  S
O441        H455   0.990       .  S
O441        H462   0.990       .  S
O442        C446   1.284       .  A
O443        C446   1.288       .  A
O444        H454   0.990       .  S
O445        H458   0.990       .  S
C446       C1217   1.480       .  S
Zr469       O470   2.440       .  S
Zr469       O471   2.426       .  S
Zr469       O472   2.427       .  S
Zr469       O475   2.417       .  S
Zr469       O477   2.374       .  S
Zr469       O478   2.379       .  S
Zr469       O479   2.401       .  S
Zr469       O480   2.397       .  S
O470        H526   0.990       .  S
O470        H534   0.990       .  S
O471        C491   1.284       .  A
O472        C493   1.285       .  A
O473       Zr483   2.453       .  S
O473        C492   1.289       .  A
O474       Zr482   2.454       .  S
O474        C493   1.289       .  A
O475        C492   1.284       .  A
O476       Zr484   2.427       .  S
O476        C491   1.283       .  A
O477       Zr482   2.393       .  S
O477       Zr484   2.374       .  S
O478       Zr483   2.385       .  S
O478       Zr484   2.372       .  S
O478        H513   0.966       .  S
O479       Zr482   2.398       .  S
O479       Zr499   2.396       .  S
O479        H516   0.966       .  S
O480       Zr483   2.392       .  S
O480       Zr499   2.394       .  S
Zr481       O506   2.444       .  S
Zr481       O500   2.432       .  S
Zr481       O508   2.421       .  S
Zr481       O496   2.428       .  S
Zr481       O487   2.403       .  S
Zr481       O488   2.401       .  S
Zr481       O489   2.376       .  S
Zr481       O490   2.380       .  S
Zr482       O501   2.436       .  S
Zr482       O494   2.434       .  S
Zr482       O495   2.461       .  S
Zr482       O488   2.398       .  S
Zr482       O489   2.393       .  S
Zr483       O485   2.436       .  S
Zr483       O507   2.436       .  S
Zr483       O509   2.443       .  S
Zr483       O487   2.399       .  S
Zr483       O490   2.388       .  S
Zr484       O510   2.436       .  S
Zr484       O511   2.435       .  S
Zr484       O486   2.437       .  S
Zr484       O487   2.400       .  S
Zr484       O488   2.395       .  S
O485        H522   0.990       .  S
O486        H517   0.990       .  S
O486        H531   0.990       .  S
O488        H514   0.967       .  S
O489       Zr499   2.379       .  S
O490       Zr499   2.372       .  S
O490        H515   0.965       .  S
C491       C2258   1.485       .  S
C492       C2153   1.479       .  S
C493       C2393   1.497       .  S
O494        H530   0.990       .  S
O495        C497   1.290       .  A
O496        C497   1.284       .  A
C497       C1178   1.483       .  S
O498       Zr499   2.439       .  S
O498        H527   0.990       .  S
Zr499       O502   2.436       .  S
Zr499       O503   2.440       .  S
Zr499       O504   2.422       .  S
O500        C505   1.285       .  A
O501        H518   0.990       .  S
O501        H533   0.990       .  S
O502        H519   0.991       .  S
O503        H523   0.990       .  S
O503        H532   0.990       .  S
O504        C505   1.281       .  A
C505       C1202   1.491       .  S
O506        H525   0.990       .  S
O506        H529   0.990       .  S
O507        H521   0.990       .  S
O507        H528   0.990       .  S
O508        C512   1.283       .  A
O509        C512   1.287       .  A
O510        H520   0.990       .  S
O511        H524   0.990       .  S
C512       C1154   1.492       .  S
Zr535       O536   2.441       .  S
Zr535       O537   2.433       .  S
Zr535       O538   2.414       .  S
Zr535       O541   2.403       .  S
Zr535       O543   2.373       .  S
Zr535       O544   2.378       .  S
Zr535       O545   2.400       .  S
Zr535       O546   2.396       .  S
O536        H592   0.990       .  S
O536        H600   0.990       .  S
O537        C557   1.285       .  A
O538        C559   1.280       .  A
O539       Zr549   2.447       .  S
O539        C558   1.287       .  A
O540       Zr548   2.458       .  S
O540        C559   1.288       .  A
O541        C558   1.281       .  A
O542       Zr550   2.426       .  S
O542        C557   1.282       .  A
O543       Zr548   2.392       .  S
O543       Zr550   2.376       .  S
O544       Zr549   2.394       .  S
O544       Zr550   2.376       .  S
O544        H579   0.966       .  S
O545       Zr548   2.405       .  S
O545       Zr565   2.402       .  S
O545        H582   0.966       .  S
O546       Zr549   2.397       .  S
O546       Zr565   2.397       .  S
Zr547       O572   2.445       .  S
Zr547       O566   2.425       .  S
Zr547       O574   2.418       .  S
Zr547       O562   2.416       .  S
Zr547       O553   2.398       .  S
Zr547       O554   2.399       .  S
Zr547       O555   2.375       .  S
Zr547       O556   2.376       .  S
Zr548       O567   2.436       .  S
Zr548       O560   2.436       .  S
Zr548       O561   2.448       .  S
Zr548       O554   2.399       .  S
Zr548       O555   2.398       .  S
Zr549       O551   2.435       .  S
Zr549       O573   2.436       .  S
Zr549       O575   2.451       .  S
Zr549       O553   2.395       .  S
Zr549       O556   2.392       .  S
Zr550       O576   2.436       .  S
Zr550       O577   2.437       .  S
Zr550       O552   2.436       .  S
Zr550       O553   2.395       .  S
Zr550       O554   2.398       .  S
O551        H588   0.990       .  S
O552        H583   0.990       .  S
O552        H597   0.990       .  S
O554        H580   0.965       .  S
O555       Zr565   2.372       .  S
O556       Zr565   2.379       .  S
O556        H581   0.967       .  S
C557       C2090   1.488       .  S
C558       C2225   1.489       .  S
C559       C2474   1.490       .  S
O560        H596   0.990       .  S
O561        C563   1.288       .  A
O562        C563   1.282       .  A
C563       C1097   1.489       .  S
O564       Zr565   2.439       .  S
O564        H593   0.991       .  S
Zr565       O568   2.439       .  S
Zr565       O569   2.442       .  S
Zr565       O570   2.425       .  S
O566        C571   1.284       .  A
O567        H584   0.990       .  S
O567        H599   0.990       .  S
O568        H585   0.990       .  S
O569        H589   0.990       .  S
O569        H598   0.990       .  S
O570        C571   1.281       .  A
C571       C1130   1.487       .  S
O572        H591   0.990       .  S
O572        H595   0.990       .  S
O573        H587   0.990       .  S
O573        H594   0.990       .  S
O574        C578   1.282       .  A
O575        C578   1.287       .  A
O576        H586   0.990       .  S
O577        H590   0.990       .  S
C578       C1073   1.477       .  S
C601        N602   1.360       .  A
C601        N606   1.357       .  A
C601       C1121   1.475       .  S
N602        C603   1.360       .  A
C603        N604   1.359       .  A
C603       C1250   1.477       .  S
N604        C605   1.356       .  A
C605        N606   1.356       .  A
C605       C1049   1.485       .  S
C607        N608   1.361       .  A
C607        N612   1.356       .  A
C607       C1313   1.477       .  S
N608        C609   1.362       .  A
C609        N610   1.356       .  A
C609       C1265   1.475       .  S
N610        C611   1.353       .  A
C611        N612   1.352       .  A
C611       C1025   1.482       .  S
C613        N614   1.356       .  A
C613        N618   1.367       .  A
C613       C1169   1.499       .  S
N614        C615   1.354       .  A
C615        N616   1.358       .  A
C615       C1001   1.493       .  S
N616        C617   1.363       .  A
C617        N618   1.368       .  A
C617       C1346   1.498       .  S
C619        N620   1.356       .  A
C619        N624   1.360       .  A
C619       C1193   1.475       .  S
N620        C621   1.355       .  A
C621        N622   1.358       .  A
C621        C986   1.488       .  S
N622        C623   1.360       .  A
C623        N624   1.362       .  A
C623       C1106   1.476       .  S
C625        N626   1.361       .  A
C625        N630   1.362       .  A
C625       C1529   1.483       .  S
N626        C627   1.358       .  A
C627        N628   1.358       .  A
C627        C953   1.498       .  S
N628        C629   1.361       .  A
C629        N630   1.362       .  A
C629       C1706   1.490       .  S
C631        N632   1.359       .  A
C631        N636   1.356       .  A
C631       C1514   1.468       .  S
N632        C633   1.361       .  A
C633        N634   1.361       .  A
C633       C1466   1.486       .  S
N634        C635   1.357       .  A
C635        N636   1.354       .  A
C635        C929   1.489       .  S
C637        N638   1.365       .  A
C637        N642   1.360       .  A
C637       C1433   1.486       .  S
N638        C639   1.363       .  A
C639        N640   1.360       .  A
C639       C1610   1.484       .  S
N640        C641   1.356       .  A
C641        N642   1.358       .  A
C641        C905   1.495       .  S
C643        N644   1.354       .  A
C643        N648   1.360       .  A
C643       C1730   1.477       .  S
N644        C645   1.350       .  A
C645        N646   1.355       .  A
C645        C881   1.486       .  S
N646        C647   1.361       .  A
C647        N648   1.362       .  A
C647       C1586   1.486       .  S
C649        N650   1.355       .  A
C649        N654   1.359       .  A
C649       C1409   1.472       .  S
N650        C651   1.354       .  A
C651        N652   1.357       .  A
C651        C866   1.487       .  S
N652        C653   1.361       .  A
C653        N654   1.360       .  A
C653       C1082   1.484       .  S
C655        N656   1.362       .  A
C655        N660   1.357       .  A
C655       C1481   1.480       .  S
N656        C657   1.363       .  A
C657        N658   1.360       .  A
C657       C1145   1.477       .  S
N658        C659   1.357       .  A
C659        N660   1.354       .  A
C659        C833   1.491       .  S
C661        N662   1.353       .  A
C661        N666   1.358       .  A
C661       C1562   1.479       .  S
N662        C663   1.354       .  A
C663        N664   1.363       .  A
C663        C809   1.495       .  S
N664        C665   1.366       .  A
C665        N666   1.362       .  A
C665       C1226   1.486       .  S
C667        N668   1.364       .  A
C667        N672   1.360       .  A
C667       C1682   1.497       .  S
N668        C669   1.364       .  A
C669        N670   1.361       .  A
C669       C1298   1.492       .  S
N670        C671   1.357       .  A
C671        N672   1.357       .  A
C671        C785   1.496       .  S
O673       Zr709   2.443   1_565  S
O673        C684   1.294       .  A
O674       Zr708   2.417       .  S
O674        C685   1.288   1_545  A
O675       Zr681   2.442   1_556  S
O675        C686   1.294       .  A
O676       Zr681   2.429       .  S
O676        C687   1.291       .  A
O677       Zr711   2.448   1_565  S
O677        C687   1.294       .  A
O678       Zr710   2.424       .  S
O678        C686   1.289   1_545  A
O679       Zr681   2.455   1_455  S
O679        C685   1.296       .  A
O680       Zr681   2.436       .  S
O680        C684   1.292       .  A
Zr681       O682   2.333   1_665  S
Zr681       O683   2.338   1_564  S
Zr681       O691   2.347   1_565  S
Zr681       O689   2.331   1_664  S
O682       Zr708   2.330       .  S
O682       Zr711   2.333   1_455  S
O683       Zr709   2.331   1_556  S
O683       Zr710   2.330       .  S
C684       C2498   1.492   1_554  S
C685       C2345   1.486       .  S
C686       C2138   1.488       .  S
C687       C1985   1.484       .  S
H688        O689   0.964       .  S
O689       Zr708   2.328   1_556  S
O689       Zr710   2.331   1_455  S
H690        O691   0.965   1_565  S
O691       Zr709   2.345       .  S
O691       Zr711   2.342       .  S
O692       Zr708   2.420       .  S
O692        C715   1.289       .  A
O693       Zr709   2.437       .  S
O693        C716   1.293       .  A
O694       Zr710   2.419   1_455  S
O694        C717   1.288       .  A
O695       Zr711   2.445   1_455  S
O695        C718   1.294       .  A
O696       Zr711   2.440       .  S
O696        C719   1.293       .  A
O697       Zr710   2.415       .  S
O697        C720   1.289       .  A
O698       Zr712   2.464   1_556  S
O698        C721   1.297       .  A
O699       Zr712   2.449       .  S
O699        C722   1.295       .  A
O700       Zr710   2.427       .  S
O700        C721   1.291       .  A
O701       Zr711   2.430       .  S
O701        C722   1.292       .  A
O702       Zr708   2.418   1_556  S
O702        C717   1.289       .  A
O703       Zr709   2.456   1_556  S
O703        C720   1.295       .  A
O704       Zr709   2.445       .  S
O704        C719   1.294       .  A
O705       Zr708   2.407       .  S
O705        C718   1.286       .  A
O706       Zr712   2.464   1_455  S
O706        C715   1.296       .  A
O707       Zr712   2.432       .  S
O707        C716   1.292       .  A
Zr708       O714   2.327   1_554  S
Zr708       O726   2.335       .  S
Zr709       O713   2.339       .  S
Zr709       O724   2.348   1_554  S
Zr710       O714   2.331   1_655  S
Zr710       O724   2.333       .  S
Zr711       O713   2.340       .  S
Zr711       O726   2.350   1_655  S
Zr712       O713   2.349       .  S
Zr712       O714   2.333   1_654  S
Zr712       O726   2.350   1_655  S
Zr712       O724   2.353   1_554  S
C715       C1370   1.482       .  S
C716       C2417   1.487       .  S
C717       C2066   1.477       .  S
C718       C1634   1.483       .  S
C719       C1922   1.491       .  S
C720       C2282   1.491       .  S
C721       C2201   1.497       .  S
C722       C1802   1.488       .  S
H723        O724   0.965       .  S
H725        O726   0.965       .  S
O727       Zr763   2.434       .  S
O727        C738   1.291       .  A
O728       Zr762   2.439       .  S
O728        C739   1.293       .  A
O729       Zr735   2.435       .  S
O729        C740   1.292       .  A
O730       Zr735   2.431       .  S
O730        C741   1.292       .  A
O731       Zr765   2.442       .  S
O731        C741   1.293       .  A
O732       Zr764   2.431       .  S
O732        C740   1.292       .  A
O733       Zr735   2.434       .  S
O733        C739   1.292       .  A
O734       Zr735   2.437       .  S
O734        C738   1.293       .  A
Zr735       O736   2.335       .  S
Zr735       O737   2.334       .  S
Zr735       O745   2.336       .  S
Zr735       O743   2.340       .  S
O736       Zr762   2.343       .  S
O736       Zr765   2.336       .  S
O737       Zr763   2.330       .  S
O737       Zr764   2.333       .  S
C738       C1058   1.489       .  S
C739       C1010   1.477       .  S
C740       C1034   1.486       .  S
C741        C977   1.490       .  S
H742        O743   0.966       .  S
O743       Zr762   2.339       .  S
O743       Zr764   2.338       .  S
H744        O745   0.965       .  S
O745       Zr763   2.341       .  S
O745       Zr765   2.341       .  S
O746       Zr762   2.441       .  S
O746        C769   1.293       .  A
O747       Zr763   2.427       .  S
O747        C770   1.291       .  A
O748       Zr764   2.432       .  S
O748        C771   1.292       .  A
O749       Zr765   2.438       .  S
O749        C772   1.293       .  A
O750       Zr765   2.439       .  S
O750        C773   1.293       .  A
O751       Zr764   2.435       .  S
O751        C774   1.292       .  A
O752       Zr766   2.423       .  S
O752        C775   1.290       .  A
O753       Zr766   2.445       .  S
O753        C776   1.294       .  A
O754       Zr764   2.431       .  S
O754        C775   1.292       .  A
O755       Zr765   2.438       .  S
O755        C776   1.292       .  A
O756       Zr762   2.457       .  S
O756        C771   1.295       .  A
O757       Zr763   2.450       .  S
O757        C774   1.294       .  A
O758       Zr763   2.426       .  S
O758        C773   1.290       .  A
O759       Zr762   2.436       .  S
O759        C772   1.292       .  A
O760       Zr766   2.446       .  S
O760        C769   1.295       .  A
O761       Zr766   2.454       .  S
O761        C770   1.295       .  A
Zr762       O768   2.338       .  S
Zr762       O780   2.349       .  S
Zr763       O767   2.345       .  S
Zr763       O778   2.333       .  S
Zr764       O768   2.336       .  S
Zr764       O778   2.337       .  S
Zr765       O767   2.338       .  S
Zr765       O780   2.344       .  S
Zr766       O767   2.335       .  S
Zr766       O768   2.347       .  S
Zr766       O780   2.341       .  S
Zr766       O778   2.346       .  S
C769        C962   1.494       .  S
C770        C914   1.493       .  S
C771        C794   1.494       .  S
C772        C842   1.485       .  S
C773        C857   1.481       .  S
C774        C818   1.493       .  S
C775        C890   1.479       .  S
C776        C938   1.489       .  S
H777        O778   0.966       .  S
H779        O780   0.965       .  S
C781        C782   1.402       .  A
C781        C786   1.404       .  A
C781        H791   1.084       .  S
C782        C787   1.482       .  S
C782        C783   1.403       .  A
C783        C784   1.400       .  A
C783        O788   1.372       .  S
C784        C785   1.410       .  A
C784        H789   1.083       .  S
C785        C786   1.417       .  A
C786        O790   1.372       .  S
C787        C792   1.403       .  A
C787        C796   1.403       .  A
O788        H804   0.992       .  S
O790        H801   0.992       .  S
C792        C793   1.398       .  A
C792        O797   1.372       .  S
C793        C794   1.410       .  A
C793        H798   1.083       .  S
C794        C795   1.416       .  A
C795        C796   1.407       .  A
C795        O799   1.371       .  S
C796        H800   1.083       .  S
O797        H802   0.992       .  S
O799        H803   0.992       .  S
C805        C806   1.398       .  A
C805        C810   1.397       .  A
C805        H815   1.084       .  S
C806        C811   1.481       .  S
C806        C807   1.407       .  A
C807        C808   1.405       .  A
C807        O812   1.371       .  S
C808        C809   1.410       .  A
C808        H813   1.083       .  S
C809        C810   1.420       .  A
C810        O814   1.372       .  S
C811        C816   1.405       .  A
C811        C820   1.402       .  A
O812        H828   0.992       .  S
O814        H825   0.992       .  S
C816        C817   1.400       .  A
C816        O821   1.372       .  S
C817        C818   1.409       .  A
C817        H822   1.083       .  S
C818        C819   1.416       .  A
C819        C820   1.404       .  A
C819        O823   1.371       .  S
C820        H824   1.084       .  S
O821        H826   0.992       .  S
O823        H827   0.992       .  S
C829        C830   1.399       .  A
C829        C834   1.400       .  A
C829        H839   1.084       .  S
C830        C835   1.476       .  S
C830        C831   1.404       .  A
C831        C832   1.401       .  A
C831        O836   1.372       .  S
C832        C833   1.409       .  A
C832        H837   1.083       .  S
C833        C834   1.418       .  A
C834        O838   1.371       .  S
C835        C840   1.404       .  A
C835        C844   1.400       .  A
O836        H852   0.991       .  S
O838        H849   0.992       .  S
C840        C841   1.398       .  A
C840        O845   1.372       .  S
C841        C842   1.407       .  A
C841        H846   1.083       .  S
C842        C843   1.415       .  A
C843        C844   1.401       .  A
C843        O847   1.372       .  S
C844        H848   1.084       .  S
O845        H850   0.992       .  S
O847        H851   0.992       .  S
C853        C854   1.400       .  A
C853        C858   1.397       .  A
C853        H863   1.084       .  S
C854        C859   1.472       .  S
C854        C855   1.405       .  A
C855        C856   1.398       .  A
C855        O860   1.372       .  S
C856        C857   1.407       .  A
C856        H861   1.083       .  S
C857        C858   1.414       .  A
C858        O862   1.372       .  S
C859        C864   1.403       .  A
C859        C868   1.400       .  A
O860        H876   0.992       .  S
O862        H873   0.992       .  S
C864        C865   1.397       .  A
C864        O869   1.372       .  S
C865        C866   1.410       .  A
C865        H870   1.083       .  S
C866        C867   1.415       .  A
C867        C868   1.399       .  A
C867        O871   1.371       .  S
C868        H872   1.084       .  S
O869        H874   0.992       .  S
O871        H875   0.992       .  S
C877        C878   1.395       .  A
C877        C882   1.395       .  A
C877        H887   1.084       .  S
C878        C883   1.466       .  S
C878        C879   1.403       .  A
C879        C880   1.400       .  A
C879        O884   1.372       .  S
C880        C881   1.409       .  A
C880        H885   1.083       .  S
C881        C882   1.418       .  A
C882        O886   1.371       .  S
C883        C888   1.401       .  A
C883        C892   1.400       .  A
O884        H900   0.992       .  S
O886        H897   0.992       .  S
C888        C889   1.393       .  A
C888        O893   1.372       .  S
C889        C890   1.407       .  A
C889        H894   1.083       .  S
C890        C891   1.415       .  A
C891        C892   1.399       .  A
C891        O895   1.372       .  S
C892        H896   1.084       .  S
O893        H898   0.992       .  S
O895        H899   0.992       .  S
C901        C902   1.402       .  A
C901        C906   1.403       .  A
C901        H911   1.084       .  S
C902        C907   1.483       .  S
C902        C903   1.405       .  A
C903        C904   1.400       .  A
C903        O908   1.372       .  S
C904        C905   1.409       .  A
C904        H909   1.083       .  S
C905        C906   1.417       .  A
C906        O910   1.371       .  S
C907        C912   1.404       .  A
C907        C916   1.404       .  A
O908        H924   0.992       .  S
O910        H921   0.992       .  S
C912        C913   1.398       .  A
C912        O917   1.372       .  S
C913        C914   1.411       .  A
C913        H918   1.083       .  S
C914        C915   1.415       .  A
C915        C916   1.404       .  A
C915        O919   1.371       .  S
C916        H920   1.084       .  S
O917        H922   0.992       .  S
O919        H923   0.992       .  S
C925        C926   1.401       .  A
C925        C930   1.399       .  A
C925        H935   1.084       .  S
C926        C931   1.481       .  S
C926        C927   1.406       .  A
C927        C928   1.402       .  A
C927        O932   1.372       .  S
C928        C929   1.408       .  A
C928        H933   1.083       .  S
C929        C930   1.415       .  A
C930        O934   1.372       .  S
C931        C936   1.407       .  A
C931        C940   1.401       .  A
O932        H948   0.992       .  S
O934        H945   0.992       .  S
C936        C937   1.402       .  A
C936        O941   1.371       .  S
C937        C938   1.409       .  A
C937        H942   1.083       .  S
C938        C939   1.415       .  A
C939        C940   1.399       .  A
C939        O943   1.372       .  S
C940        H944   1.084       .  S
O941        H946   0.992       .  S
O943        H947   0.992       .  S
C949        C950   1.401       .  A
C949        C954   1.402       .  A
C949        H959   1.084       .  S
C950        C955   1.488       .  S
C950        C951   1.407       .  A
C951        C952   1.404       .  A
C951        O956   1.372       .  S
C952        C953   1.410       .  A
C952        H957   1.083       .  S
C953        C954   1.417       .  A
C954        O958   1.370       .  S
C955        C960   1.407       .  A
C955        C964   1.403       .  A
O956        H972   0.992       .  S
O958        H969   0.992       .  S
C960        C961   1.401       .  A
C960        O965   1.372       .  S
C961        C962   1.408       .  A
C961        H966   1.083       .  S
C962        C963   1.416       .  A
C963        C964   1.404       .  A
C963        O967   1.372       .  S
C964        H968   1.084       .  S
O965        H970   0.992       .  S
O967        H971   0.992       .  S
C973        C974   1.400       .  A
C973        C978   1.401       .  A
C973        H983   1.084       .  S
C974        C979   1.475       .  S
C974        C975   1.404       .  A
C975        C976   1.397       .  A
C975        O980   1.372       .  S
C976        C977   1.410       .  A
C976        H981   1.083       .  S
C977        C978   1.416       .  A
C978        O982   1.372       .  S
C979        C984   1.403       .  A
C979        C988   1.401       .  A
O980        H996   0.992       .  S
O982        H993   0.992       .  S
C984        C985   1.399       .  A
C984        O989   1.372       .  S
C985        C986   1.410       .  A
C985        H990   1.083       .  S
C986        C987   1.414       .  A
C987        C988   1.399       .  A
C987        O991   1.371       .  S
C988        H992   1.084       .  S
O989        H994   0.992       .  S
O991        H995   0.992       .  S
C997        C998   1.403       .  A
C997       C1002   1.401       .  A
C997       H1007   1.084       .  S
C998       C1003   1.483       .  S
C998        C999   1.406       .  A
C999       C1000   1.400       .  A
C999       O1004   1.372       .  S
C1000      C1001   1.411       .  A
C1000      H1005   1.082       .  S
C1001      C1002   1.414       .  A
C1002      O1006   1.371       .  S
C1003      C1008   1.408       .  A
C1003      C1012   1.404       .  A
O1004      H1020   0.992       .  S
O1006      H1017   0.992       .  S
C1008      C1009   1.399       .  A
C1008      O1013   1.371       .  S
C1009      C1010   1.404       .  A
C1009      H1014   1.084       .  S
C1010      C1011   1.410       .  A
C1011      C1012   1.400       .  A
C1011      O1015   1.373       .  S
C1012      H1016   1.084       .  S
O1013      H1018   0.992       .  S
O1015      H1019   0.992       .  S
C1021      C1022   1.401       .  A
C1021      C1026   1.396       .  A
C1021      H1031   1.084       .  S
C1022      C1027   1.475       .  S
C1022      C1023   1.405       .  A
C1023      C1024   1.396       .  A
C1023      O1028   1.372       .  S
C1024      C1025   1.408       .  A
C1024      H1029   1.083       .  S
C1025      C1026   1.414       .  A
C1026      O1030   1.371       .  S
C1027      C1032   1.404       .  A
C1027      C1036   1.401       .  A
O1028      H1044   0.992       .  S
O1030      H1041   0.992       .  S
C1032      C1033   1.397       .  A
C1032      O1037   1.372       .  S
C1033      C1034   1.408       .  A
C1033      H1038   1.083       .  S
C1034      C1035   1.415       .  A
C1035      C1036   1.399       .  A
C1035      O1039   1.372       .  S
C1036      H1040   1.084       .  S
O1037      H1042   0.992       .  S
O1039      H1043   0.992       .  S
C1045      C1046   1.403       .  A
C1045      C1050   1.401       .  A
C1045      H1055   1.083       .  S
C1046      C1051   1.482       .  S
C1046      C1047   1.406       .  A
C1047      C1048   1.397       .  A
C1047      O1052   1.372       .  S
C1048      C1049   1.406       .  A
C1048      H1053   1.083       .  S
C1049      C1050   1.414       .  A
C1050      O1054   1.372       .  S
C1051      C1056   1.405       .  A
C1051      C1060   1.403       .  A
O1052      H1068   0.992       .  S
O1054      H1065   0.992       .  S
C1056      C1057   1.398       .  A
C1056      O1061   1.372       .  S
C1057      C1058   1.409       .  A
C1057      H1062   1.083       .  S
C1058      C1059   1.416       .  A
C1059      C1060   1.400       .  A
C1059      O1063   1.372       .  S
C1060      H1064   1.084       .  S
O1061      H1066   0.992       .  S
O1063      H1067   0.992       .  S
C1069      C1070   1.403       .  A
C1069      C1074   1.396       .  A
C1069      H1079   1.084       .  S
C1070      C1075   1.484       .  S
C1070      C1071   1.410       .  A
C1071      C1072   1.406       .  A
C1071      O1076   1.372       .  S
C1072      C1073   1.406       .  A
C1072      H1077   1.084       .  S
C1073      C1074   1.408       .  A
C1074      O1078   1.372       .  S
C1075      C1080   1.408       .  A
C1075      C1084   1.404       .  A
O1076      H1092   0.992       .  S
O1078      H1089   0.992       .  S
C1080      C1081   1.396       .  A
C1080      O1085   1.373       .  S
C1081      C1082   1.404       .  A
C1081      H1086   1.083       .  S
C1082      C1083   1.414       .  A
C1083      C1084   1.405       .  A
C1083      O1087   1.371       .  S
C1084      H1088   1.083       .  S
O1085      H1090   0.992       .  S
O1087      H1091   0.992       .  S
C1093      C1094   1.402       .  A
C1093      C1098   1.396       .  A
C1093      H1103   1.083       .  S
C1094      C1099   1.490       .  S
C1094      C1095   1.412       .  A
C1095      C1096   1.405       .  A
C1095      O1100   1.371       .  S
C1096      C1097   1.407       .  A
C1096      H1101   1.083       .  S
C1097      C1098   1.415       .  A
C1098      O1102   1.372       .  S
C1099      C1104   1.411       .  A
C1099      C1108   1.406       .  A
O1100      H1116   0.992       .  S
O1102      H1113   0.992       .  S
C1104      C1105   1.402       .  A
C1104      O1109   1.373       .  S
C1105      C1106   1.402       .  A
C1105      H1110   1.084       .  S
C1106      C1107   1.407       .  A
C1107      C1108   1.401       .  A
C1107      O1111   1.372       .  S
C1108      H1112   1.083       .  S
O1109      H1114   0.992       .  S
O1111      H1115   0.992       .  S
C1117      C1118   1.403       .  A
C1117      C1122   1.397       .  A
C1117      H1127   1.084       .  S
C1118      C1123   1.481       .  S
C1118      C1119   1.409       .  A
C1119      C1120   1.401       .  A
C1119      O1124   1.371       .  S
C1120      C1121   1.403       .  A
C1120      H1125   1.084       .  S
C1121      C1122   1.409       .  A
C1122      O1126   1.372       .  S
C1123      C1128   1.407       .  A
C1123      C1132   1.402       .  A
O1124      H1140   0.992       .  S
O1126      H1137   0.992       .  S
C1128      C1129   1.398       .  A
C1128      O1133   1.372       .  S
C1129      C1130   1.406       .  A
C1129      H1134   1.083       .  S
C1130      C1131   1.416       .  A
C1131      C1132   1.401       .  A
C1131      O1135   1.372       .  S
C1132      H1136   1.084       .  S
O1133      H1138   0.992       .  S
O1135      H1139   0.992       .  S
C1141      C1142   1.403       .  A
C1141      C1146   1.399       .  A
C1141      H1151   1.084       .  S
C1142      C1147   1.484       .  S
C1142      C1143   1.410       .  A
C1143      C1144   1.405       .  A
C1143      O1148   1.372       .  S
C1144      C1145   1.403       .  A
C1144      H1149   1.084       .  S
C1145      C1146   1.409       .  A
C1146      O1150   1.372       .  S
C1147      C1152   1.407       .  A
C1147      C1156   1.401       .  A
O1148      H1164   0.992       .  S
O1150      H1161   0.992       .  S
C1152      C1153   1.403       .  A
C1152      O1157   1.371       .  S
C1153      C1154   1.410       .  A
C1153      H1158   1.083       .  S
C1154      C1155   1.416       .  A
C1155      C1156   1.398       .  A
C1155      O1159   1.372       .  S
C1156      H1160   1.084       .  S
O1157      H1162   0.992       .  S
O1159      H1163   0.992       .  S
C1165      C1166   1.400       .  A
C1165      C1170   1.399       .  A
C1165      H1175   1.084       .  S
C1166      C1171   1.490       .  S
C1166      C1167   1.409       .  A
C1167      C1168   1.410       .  A
C1167      O1172   1.371       .  S
C1168      C1169   1.409       .  A
C1168      H1173   1.083       .  S
C1169      C1170   1.420       .  A
C1170      O1174   1.372       .  S
C1171      C1176   1.410       .  A
C1171      C1180   1.405       .  A
O1172      H1188   0.992       .  S
O1174      H1185   0.992       .  S
C1176      C1177   1.406       .  A
C1176      O1181   1.371       .  S
C1177      C1178   1.405       .  A
C1177      H1182   1.084       .  S
C1178      C1179   1.409       .  A
C1179      C1180   1.403       .  A
C1179      O1183   1.372       .  S
C1180      H1184   1.084       .  S
O1181      H1186   0.992       .  S
O1183      H1187   0.992       .  S
C1189      C1190   1.401       .  A
C1189      C1194   1.395       .  A
C1189      H1199   1.084       .  S
C1190      C1195   1.482       .  S
C1190      C1191   1.410       .  A
C1191      C1192   1.404       .  A
C1191      O1196   1.372       .  S
C1192      C1193   1.404       .  A
C1192      H1197   1.084       .  S
C1193      C1194   1.409       .  A
C1194      O1198   1.372       .  S
C1195      C1200   1.408       .  A
C1195      C1204   1.400       .  A
O1196      H1212   0.992       .  S
O1198      H1209   0.992       .  S
C1200      C1201   1.398       .  A
C1200      O1205   1.372       .  S
C1201      C1202   1.407       .  A
C1201      H1206   1.083       .  S
C1202      C1203   1.418       .  A
C1203      C1204   1.401       .  A
C1203      O1207   1.372       .  S
C1204      H1208   1.084       .  S
O1205      H1210   0.992       .  S
O1207      H1211   0.992       .  S
C1213      C1214   1.406       .  A
C1213      C1218   1.408       .  A
C1213      H1223   1.083       .  S
C1214      C1219   1.484       .  S
C1214      C1215   1.406       .  A
C1215      C1216   1.398       .  A
C1215      O1220   1.372       .  S
C1216      C1217   1.404       .  A
C1216      H1221   1.084       .  S
C1217      C1218   1.409       .  A
C1218      O1222   1.372       .  S
C1219      C1224   1.407       .  A
C1219      C1228   1.403       .  A
O1220      H1236   0.992       .  S
O1222      H1233   0.992       .  S
C1224      C1225   1.403       .  A
C1224      O1229   1.371       .  S
C1225      C1226   1.405       .  A
C1225      H1230   1.084       .  S
C1226      C1227   1.413       .  A
C1227      C1228   1.403       .  A
C1227      O1231   1.372       .  S
C1228      H1232   1.084       .  S
O1229      H1234   0.992       .  S
O1231      H1235   0.992       .  S
C1237      C1238   1.396       .  A
C1237      C1242   1.397       .  A
C1237      H1247   1.084       .  S
C1238      C1243   1.475       .  S
C1238      C1239   1.404       .  A
C1239      C1240   1.404       .  A
C1239      O1244   1.371       .  S
C1240      C1241   1.411       .  A
C1240      H1245   1.083       .  S
C1241      C1242   1.418       .  A
C1242      O1246   1.375       .  S
C1243      C1248   1.405       .  A
C1243      C1252   1.402       .  A
O1244      H1260   0.992       .  S
O1246      H1257   0.992       .  S
C1248      C1249   1.397       .  A
C1248      O1253   1.372       .  S
C1249      C1250   1.405       .  A
C1249      H1254   1.084       .  S
C1250      C1251   1.411       .  A
C1251      C1252   1.401       .  A
C1251      O1255   1.372       .  S
C1252      H1256   1.084       .  S
O1253      H1258   0.992       .  S
O1255      H1259   0.992       .  S
C1261      C1262   1.404       .  A
C1261      C1266   1.399       .  A
C1261      H1271   1.083       .  S
C1262      C1267   1.482       .  S
C1262      C1263   1.408       .  A
C1263      C1264   1.398       .  A
C1263      O1268   1.372       .  S
C1264      C1265   1.405       .  A
C1264      H1269   1.084       .  S
C1265      C1266   1.408       .  A
C1266      O1270   1.371       .  S
C1267      C1272   1.407       .  A
C1267      C1276   1.401       .  A
O1268      H1284   0.992       .  S
O1270      H1281   0.992       .  S
C1272      C1273   1.401       .  A
C1272      O1277   1.372       .  S
C1273      C1274   1.408       .  A
C1273      H1278   1.083       .  S
C1274      C1275   1.414       .  A
C1275      C1276   1.398       .  A
C1275      O1279   1.369       .  S
C1276      H1280   1.084       .  S
O1277      H1282   0.992       .  S
O1279      H1283   0.991       .  S
C1285      C1286   1.405       .  A
C1285      C1290   1.408       .  A
C1285      H1295   1.083       .  S
C1286      C1291   1.490       .  S
C1286      C1287   1.408       .  A
C1287      C1288   1.401       .  A
C1287      O1292   1.374       .  S
C1288      C1289   1.406       .  A
C1288      H1293   1.084       .  S
C1289      C1290   1.412       .  A
C1290      O1294   1.371       .  S
C1291      C1296   1.408       .  A
C1291      C1300   1.406       .  A
O1292      H1308   0.992       .  S
O1294      H1305   0.992       .  S
C1296      C1297   1.397       .  A
C1296      O1301   1.372       .  S
C1297      C1298   1.405       .  A
C1297      H1302   1.083       .  S
C1298      C1299   1.415       .  A
C1299      C1300   1.410       .  A
C1299      O1303   1.371       .  S
C1300      H1304   1.083       .  S
O1301      H1306   0.992       .  S
O1303      H1307   0.992       .  S
C1309      C1310   1.401       .  A
C1309      C1314   1.392       .  A
C1309      H1319   1.084       .  S
C1310      C1315   1.481       .  S
C1310      C1311   1.410       .  A
C1311      C1312   1.404       .  A
C1311      O1316   1.372       .  S
C1312      C1313   1.405       .  A
C1312      H1317   1.083       .  S
C1313      C1314   1.411       .  A
C1314      O1318   1.372       .  S
C1315      C1320   1.410       .  A
C1315      C1324   1.401       .  A
O1316      H1332   0.992       .  S
O1318      H1329   0.992       .  S
C1320      C1321   1.396       .  A
C1320      O1325   1.373       .  S
C1321      C1322   1.403       .  A
C1321      H1326   1.084       .  S
C1322      C1323   1.415       .  A
C1323      C1324   1.401       .  A
C1323      O1327   1.372       .  S
C1324      H1328   1.083       .  S
O1325      H1330   0.992       .  S
O1327      H1331   0.992       .  S
C1333      C1334   1.404       .  A
C1333      C1338   1.400       .  A
C1333      H1343   1.083       .  S
C1334      C1339   1.498       .  S
C1334      C1335   1.413       .  A
C1335      C1336   1.410       .  A
C1335      O1340   1.371       .  S
C1336      C1337   1.407       .  A
C1336      H1341   1.083       .  S
C1337      C1338   1.413       .  A
C1338      O1342   1.372       .  S
C1339      C1344   1.410       .  A
C1339      C1348   1.407       .  A
O1340      H1356   0.992       .  S
O1342      H1353   0.992       .  S
C1344      C1345   1.403       .  A
C1344      O1349   1.373       .  S
C1345      C1346   1.408       .  A
C1345      H1350   1.083       .  S
C1346      C1347   1.414       .  A
C1347      C1348   1.409       .  A
C1347      O1351   1.371       .  S
C1348      H1352   1.083       .  S
O1349      H1354   0.992       .  S
O1351      H1355   0.992       .  S
C1357      C1358   1.405   1_556  A
C1357      C1362   1.406       .  A
C1357      H1367   1.084       .  S
C1358      C1363   1.488       .  S
C1358      C1359   1.406       .  A
C1359      C1360   1.399       .  A
C1359      O1364   1.372       .  S
C1360      C1361   1.409       .  A
C1360      H1365   1.083       .  S
C1361      C1362   1.415   1_554  A
C1362      O1366   1.371       .  S
C1363      C1368   1.411   1_554  A
C1363      C1372   1.403       .  A
O1364      H1380   0.992       .  S
O1366      H1377   0.992       .  S
C1368      C1369   1.406       .  A
C1368      O1373   1.371       .  S
C1369      C1370   1.405   1_556  A
C1369      H1374   1.084       .  S
C1370      C1371   1.411       .  A
C1371      C1372   1.399       .  A
C1371      O1375   1.373       .  S
C1372      H1376   1.084       .  S
O1373      H1378   0.992       .  S
O1375      H1379   0.992       .  S
C1381      C1382   1.405       .  A
C1381      C1386   1.409       .  A
C1381      H1391   1.083       .  S
C1382      C1387   1.482       .  S
C1382      C1383   1.405       .  A
C1383      C1384   1.397       .  A
C1383      O1388   1.372       .  S
C1384      C1385   1.406       .  A
C1384      H1389   1.084       .  S
C1385      C1386   1.413       .  A
C1386      O1390   1.371       .  S
C1387      C1392   1.405       .  A
C1387      C1396   1.404       .  A
O1388      H1404   0.992       .  S
O1390      H1401   0.992       .  S
C1392      C1393   1.397       .  A
C1392      O1397   1.372       .  S
C1393      C1394   1.406       .  A
C1393      H1398   1.083       .  S
C1394      C1395   1.414       .  A
C1395      C1396   1.408       .  A
C1395      O1399   1.371       .  S
C1396      H1400   1.083       .  S
O1397      H1402   0.992       .  S
O1399      H1403   0.992       .  S
C1405      C1406   1.405       .  A
C1405      C1410   1.400       .  A
C1405      H1415   1.083       .  S
C1406      C1411   1.482       .  S
C1406      C1407   1.409       .  A
C1407      C1408   1.396       .  A
C1407      O1412   1.372       .  S
C1408      C1409   1.403       .  A
C1408      H1413   1.084       .  S
C1409      C1410   1.408       .  A
C1410      O1414   1.371       .  S
C1411      C1416   1.406       .  A
C1411      C1420   1.404       .  A
O1412      H1428   0.992       .  S
O1414      H1425   0.992       .  S
C1416      C1417   1.400       .  A
C1416      O1421   1.372       .  S
C1417      C1418   1.407       .  A
C1417      H1422   1.083       .  S
C1418      C1419   1.415       .  A
C1419      C1420   1.398       .  A
C1419      O1423   1.372       .  S
C1420      H1424   1.084       .  S
O1421      H1426   0.992       .  S
O1423      H1427   0.992       .  S
C1429      C1430   1.405       .  A
C1429      C1434   1.406       .  A
C1429      H1439   1.083       .  S
C1430      C1435   1.485       .  S
C1430      C1431   1.407       .  A
C1431      C1432   1.400       .  A
C1431      O1436   1.373       .  S
C1432      C1433   1.406       .  A
C1432      H1437   1.084       .  S
C1433      C1434   1.411       .  A
C1434      O1438   1.371       .  S
C1435      C1440   1.406       .  A
C1435      C1444   1.403       .  A
O1436      H1452   0.992       .  S
O1438      H1449   0.992       .  S
C1440      C1441   1.397       .  A
C1440      O1445   1.372       .  S
C1441      C1442   1.408       .  A
C1441      H1446   1.083       .  S
C1442      C1443   1.417       .  A
C1443      C1444   1.407       .  A
C1443      O1447   1.372       .  S
C1444      H1448   1.084       .  S
O1445      H1450   0.992       .  S
O1447      H1451   0.992       .  S
C1453      C1454   1.405       .  A
C1453      C1458   1.403       .  A
C1453      H1463   1.084       .  S
C1454      C1459   1.481       .  S
C1454      C1455   1.408       .  A
C1455      C1456   1.396       .  A
C1455      O1460   1.374       .  S
C1456      C1457   1.400       .  A
C1456      H1461   1.084       .  S
C1457      C1458   1.409       .  A
C1458      O1462   1.371       .  S
C1459      C1464   1.408       .  A
C1459      C1468   1.403       .  A
O1460      H1476   0.992       .  S
O1462      H1473   0.992       .  S
C1464      C1465   1.392       .  A
C1464      O1469   1.372       .  S
C1465      C1466   1.404       .  A
C1465      H1470   1.083       .  S
C1466      C1467   1.415       .  A
C1467      C1468   1.405       .  A
C1467      O1471   1.371       .  S
C1468      H1472   1.083       .  S
O1469      H1474   0.992       .  S
O1471      H1475   0.992       .  S
C1477      C1478   1.408       .  A
C1477      C1482   1.406       .  A
C1477      H1487   1.083       .  S
C1478      C1483   1.491       .  S
C1478      C1479   1.410       .  A
C1479      C1480   1.395       .  A
C1479      O1484   1.372       .  S
C1480      C1481   1.403       .  A
C1480      H1485   1.084       .  S
C1481      C1482   1.409       .  A
C1482      O1486   1.371       .  S
C1483      C1488   1.409       .  A
C1483      C1492   1.403       .  A
O1484      H1500   0.992       .  S
O1486      H1497   0.992       .  S
C1488      C1489   1.407       .  A
C1488      O1493   1.372       .  S
C1489      C1490   1.409       .  A
C1489      H1494   1.083       .  S
C1490      C1491   1.418       .  A
C1491      C1492   1.396       .  A
C1491      O1495   1.372       .  S
C1492      H1496   1.084       .  S
O1493      H1498   0.992       .  S
O1495      H1499   0.992       .  S
C1501      C1502   1.400       .  A
C1501      C1506   1.401       .  A
C1501      H1511   1.084       .  S
C1502      C1507   1.482       .  S
C1502      C1503   1.408       .  A
C1503      C1504   1.399       .  A
C1503      O1508   1.373       .  S
C1504      C1505   1.407       .  A
C1504      H1509   1.083       .  S
C1505      C1506   1.417       .  A
C1506      O1510   1.371       .  S
C1507      C1512   1.408       .  A
C1507      C1516   1.406       .  A
O1508      H1524   0.992       .  S
O1510      H1521   0.992       .  S
C1512      C1513   1.394       .  A
C1512      O1517   1.371       .  S
C1513      C1514   1.400       .  A
C1513      H1518   1.084       .  S
C1514      C1515   1.407       .  A
C1515      C1516   1.404       .  A
C1515      O1519   1.372       .  S
C1516      H1520   1.084       .  S
O1517      H1522   0.992       .  S
O1519      H1523   0.992       .  S
C1525      C1526   1.404       .  A
C1525      C1530   1.406       .  A
C1525      H1535   1.083       .  S
C1526      C1531   1.484       .  S
C1526      C1527   1.408       .  A
C1527      C1528   1.397       .  A
C1527      O1532   1.372       .  S
C1528      C1529   1.403       .  A
C1528      H1533   1.084       .  S
C1529      C1530   1.413       .  A
C1530      O1534   1.371       .  S
C1531      C1536   1.408       .  A
C1531      C1540   1.401       .  A
O1532      H1548   0.992       .  S
O1534      H1545   0.992       .  S
C1536      C1537   1.406       .  A
C1536      O1541   1.371       .  S
C1537      C1538   1.408       .  A
C1537      H1542   1.084       .  S
C1538      C1539   1.412       .  A
C1539      C1540   1.395       .  A
C1539      O1543   1.372       .  S
C1540      H1544   1.084       .  S
O1541      H1546   0.992       .  S
O1543      H1547   0.992       .  S
C1549      C1550   1.404       .  A
C1549      C1554   1.399       .  A
C1549      H1559   1.084       .  S
C1550      C1555   1.480       .  S
C1550      C1551   1.404       .  A
C1551      C1552   1.398       .  A
C1551      O1556   1.372       .  S
C1552      C1553   1.408       .  A
C1552      H1557   1.083       .  S
C1553      C1554   1.413       .  A
C1554      O1558   1.372       .  S
C1555      C1560   1.405       .  A
C1555      C1564   1.405       .  A
O1556      H1572   0.992       .  S
O1558      H1569   0.992       .  S
C1560      C1561   1.397       .  A
C1560      O1565   1.373       .  S
C1561      C1562   1.406       .  A
C1561      H1566   1.084       .  S
C1562      C1563   1.409       .  A
C1563      C1564   1.402       .  A
C1563      O1567   1.371       .  S
C1564      H1568   1.084       .  S
O1565      H1570   0.992       .  S
O1567      H1571   0.992       .  S
C1573      C1574   1.399       .  A
C1573      C1578   1.392       .  A
C1573      H1583   1.084       .  S
C1574      C1579   1.476       .  S
C1574      C1575   1.407       .  A
C1575      C1576   1.406       .  A
C1575      O1580   1.371       .  S
C1576      C1577   1.407       .  A
C1576      H1581   1.083       .  S
C1577      C1578   1.412       .  A
C1578      O1582   1.371       .  S
C1579      C1584   1.407       .  A
C1579      C1588   1.398       .  A
O1580      H1596   0.991       .  S
O1582      H1593   0.992       .  S
C1584      C1585   1.405       .  A
C1584      O1589   1.372       .  S
C1585      C1586   1.410       .  A
C1585      H1590   1.083       .  S
C1586      C1587   1.413       .  A
C1587      C1588   1.392       .  A
C1587      O1591   1.371       .  S
C1588      H1592   1.084       .  S
O1589      H1594   0.992       .  S
O1591      H1595   0.992       .  S
C1597      C1598   1.405       .  A
C1597      C1602   1.410       .  A
C1597      H1607   1.083       .  S
C1598      C1603   1.490       .  S
C1598      C1599   1.408       .  A
C1599      C1600   1.396       .  A
C1599      O1604   1.372       .  S
C1600      C1601   1.409       .  A
C1600      H1605   1.083       .  S
C1601      C1602   1.416       .  A
C1602      O1606   1.371       .  S
C1603      C1608   1.412       .  A
C1603      C1612   1.402       .  A
O1604      H1620   0.992       .  S
O1606      H1617   0.992       .  S
C1608      C1609   1.410       .  A
C1608      O1613   1.371       .  S
C1609      C1610   1.406       .  A
C1609      H1614   1.084       .  S
C1610      C1611   1.409       .  A
C1611      C1612   1.397       .  A
C1611      O1615   1.371       .  S
C1612      H1616   1.084       .  S
O1613      H1618   0.992       .  S
O1615      H1619   0.992       .  S
C1621      C1622   1.399       .  A
C1621      C1626   1.396       .  A
C1621      H1631   1.084       .  S
C1622      C1627   1.473       .  S
C1622      C1623   1.406       .  A
C1623      C1624   1.398       .  A
C1623      O1628   1.372   1_545  S
C1624      C1625   1.407       .  A
C1624      H1629   1.083   1_545  S
C1625      C1626   1.414       .  A
C1626      O1630   1.371       .  S
C1627      C1632   1.404       .  A
C1627      C1636   1.398       .  A
O1628      H1644   0.992       .  S
O1630      H1641   0.992       .  S
C1632      C1633   1.399       .  A
C1632      O1637   1.372       .  S
C1633      C1634   1.407       .  A
C1633      H1638   1.083       .  S
C1634      C1635   1.418       .  A
C1635      C1636   1.395       .  A
C1635      O1639   1.373       .  S
C1636      H1640   1.084       .  S
O1637      H1642   0.992       .  S
O1639      H1643   0.992       .  S
C1645      C1646   1.400       .  A
C1645      C1650   1.392       .  A
C1645      H1655   1.084       .  S
C1646      C1651   1.468       .  S
C1646      C1647   1.406       .  A
C1647      C1648   1.400       .  A
C1647      O1652   1.372       .  S
C1648      C1649   1.405       .  A
C1648      H1653   1.084   1_565  S
C1649      C1650   1.408       .  A
C1650      O1654   1.372       .  S
C1651      C1656   1.403       .  A
C1651      C1660   1.400       .  A
O1652      H1668   0.992       .  S
O1654      H1665   0.992       .  S
C1656      C1657   1.391       .  A
C1656      O1661   1.373       .  S
C1657      C1658   1.407       .  A
C1657      H1662   1.084       .  S
C1658      C1659   1.412       .  A
C1659      C1660   1.402       .  A
C1659      O1663   1.371       .  S
C1660      H1664   1.083       .  S
O1661      H1666   0.992       .  S
O1663      H1667   0.992       .  S
C1669      C1670   1.406       .  A
C1669      C1674   1.400       .  A
C1669      H1679   1.083       .  S
C1670      C1675   1.489       .  S
C1670      C1671   1.411       .  A
C1671      C1672   1.404       .  A
C1671      O1676   1.372       .  S
C1672      C1673   1.403       .  A
C1672      H1677   1.084       .  S
C1673      C1674   1.406       .  A
C1674      O1678   1.371       .  S
C1675      C1680   1.407       .  A
C1675      C1684   1.404       .  A
O1676      H1692   0.992       .  S
O1678      H1689   0.992       .  S
C1680      C1681   1.399       .  A
C1680      O1685   1.373       .  S
C1681      C1682   1.409       .  A
C1681      H1686   1.083       .  S
C1682      C1683   1.416       .  A
C1683      C1684   1.407       .  A
C1683      O1687   1.370       .  S
C1684      H1688   1.083       .  S
O1685      H1690   0.992       .  S
O1687      H1691   0.992       .  S
C1693      C1694   1.405       .  A
C1693      C1698   1.408       .  A
C1693      H1703   1.083       .  S
C1694      C1699   1.483       .  S
C1694      C1695   1.405       .  A
C1695      C1696   1.394       .  A
C1695      O1700   1.372       .  S
C1696      C1697   1.406       .  A
C1696      H1701   1.083       .  S
C1697      C1698   1.415       .  A
C1698      O1702   1.371       .  S
C1699      C1704   1.407       .  A
C1699      C1708   1.401       .  A
O1700      H1716   0.992       .  S
O1702      H1713   0.992       .  S
C1704      C1705   1.406       .  A
C1704      O1709   1.371       .  S
C1705      C1706   1.409       .  A
C1705      H1710   1.083       .  S
C1706      C1707   1.414       .  A
C1707      C1708   1.397       .  A
C1707      O1711   1.371       .  S
C1708      H1712   1.084       .  S
O1709      H1714   0.992       .  S
O1711      H1715   0.992       .  S
C1717      C1718   1.403       .  A
C1717      C1722   1.397       .  A
C1717      H1727   1.084       .  S
C1718      C1723   1.474       .  S
C1718      C1719   1.405       .  A
C1719      C1720   1.397       .  A
C1719      O1724   1.372       .  S
C1720      C1721   1.405       .  A
C1720      H1725   1.084       .  S
C1721      C1722   1.408       .  A
C1722      O1726   1.373       .  S
C1723      C1728   1.405       .  A
C1723      C1732   1.403       .  A
O1724      H1740   0.992       .  S
O1726      H1737   0.992       .  S
C1728      C1729   1.391       .  A
C1728      O1733   1.373       .  S
C1729      C1730   1.406       .  A
C1729      H1734   1.083       .  S
C1730      C1731   1.411       .  A
C1731      C1732   1.402       .  A
C1731      O1735   1.371       .  S
C1732      H1736   1.083       .  S
O1733      H1738   0.992       .  S
O1735      H1739   0.992       .  S
C1741      C1742   1.406       .  A
C1741      C1746   1.407       .  A
C1741      H1751   1.083       .  S
C1742      C1747   1.490       .  S
C1742      C1743   1.408       .  A
C1743      C1744   1.394       .  A
C1743      O1748   1.373       .  S
C1744      C1745   1.410       .  A
C1744      H1749   1.083       .  S
C1745      C1746   1.414       .  A
C1746      O1750   1.371       .  S
C1747      C1752   1.411       .  A
C1747      C1756   1.404       .  A
O1748      H1764   0.992       .  S
O1750      H1761   0.992       .  S
C1752      C1753   1.406       .  A
C1752      O1757   1.371       .  S
C1753      C1754   1.404       .  A
C1753      H1758   1.083       .  S
C1754      C1755   1.410       .  A
C1755      C1756   1.398       .  A
C1755      O1759   1.373       .  S
C1756      H1760   1.084       .  S
O1757      H1762   0.992       .  S
O1759      H1763   0.992       .  S
C1765      C1766   1.403       .  A
C1765      C1770   1.403       .  A
C1765      H1775   1.084       .  S
C1766      C1771   1.474       .  S
C1766      C1767   1.404       .  A
C1767      C1768   1.393       .  A
C1767      O1772   1.373       .  S
C1768      C1769   1.404       .  A
C1768      H1773   1.084       .  S
C1769      C1770   1.412       .  A
C1770      O1774   1.372       .  S
C1771      C1776   1.407       .  A
C1771      C1780   1.401       .  A
O1772      H1788   0.992       .  S
O1774      H1785   0.992       .  S
C1776      C1777   1.396       .  A
C1776      O1781   1.371       .  S
C1777      C1778   1.401       .  A
C1777      H1782   1.084       .  S
C1778      C1779   1.412       .  A
C1779      C1780   1.399       .  A
C1779      O1783   1.372       .  S
C1780      H1784   1.084       .  S
O1781      H1786   0.992       .  S
O1783      H1787   0.992       .  S
C1789      C1790   1.400       .  A
C1789      C1794   1.400       .  A
C1789      H1799   1.084       .  S
C1790      C1795   1.481       .  S
C1790      C1791   1.407       .  A
C1791      C1792   1.399       .  A
C1791      O1796   1.372   1_655  S
C1792      C1793   1.408       .  A
C1792      H1797   1.083   1_655  S
C1793      C1794   1.417       .  A
C1794      O1798   1.371       .  S
C1795      C1800   1.406       .  A
C1795      C1804   1.402       .  A
O1796      H1812   0.992       .  S
O1798      H1809   0.992       .  S
C1800      C1801   1.399       .  A
C1800      O1805   1.372       .  S
C1801      C1802   1.409       .  A
C1801      H1806   1.083       .  S
C1802      C1803   1.414       .  A
C1803      C1804   1.401       .  A
C1803      O1807   1.371       .  S
C1804      H1808   1.084       .  S
O1805      H1810   0.992       .  S
O1807      H1811   0.992       .  S
C1813      C1814   1.404       .  A
C1813      C1818   1.395       .  A
C1813      H1823   1.084       .  S
C1814      C1819   1.487       .  S
C1814      C1815   1.412       .  A
C1815      C1816   1.403       .  A
C1815      O1820   1.372       .  S
C1816      C1817   1.403       .  A
C1816      H1821   1.084       .  S
C1817      C1818   1.408       .  A
C1818      O1822   1.372       .  S
C1819      C1824   1.409       .  A
C1819      C1828   1.406       .  A
O1820      H1836   0.992       .  S
O1822      H1833   0.992       .  S
C1824      C1825   1.392       .  A
C1824      O1829   1.373       .  S
C1825      C1826   1.408       .  A
C1825      H1830   1.083       .  S
C1826      C1827   1.412       .  A
C1827      C1828   1.406       .  A
C1827      O1831   1.371       .  S
C1828      H1832   1.083       .  S
O1829      H1834   0.992       .  S
O1831      H1835   0.992       .  S
C1837      C1838   1.404       .  A
C1837      C1842   1.404       .  A
C1837      H1847   1.083       .  S
C1838      C1843   1.480       .  S
C1838      C1839   1.405       .  A
C1839      C1840   1.396       .  A
C1839      O1844   1.373       .  S
C1840      C1841   1.406       .  A
C1840      H1845   1.084       .  S
C1841      C1842   1.410       .  A
C1842      O1846   1.371       .  S
C1843      C1848   1.406       .  A
C1843      C1852   1.401       .  A
O1844      H1860   0.992       .  S
O1846      H1857   0.992       .  S
C1848      C1849   1.396       .  A
C1848      O1853   1.372       .  S
C1849      C1850   1.407       .  A
C1849      H1854   1.083       .  S
C1850      C1851   1.415       .  A
C1851      C1852   1.403       .  A
C1851      O1855   1.371       .  S
C1852      H1856   1.084       .  S
O1853      H1858   0.992       .  S
O1855      H1859   0.992       .  S
C1861      C1862   1.406       .  A
C1861      C1866   1.410       .  A
C1861      H1871   1.083       .  S
C1862      C1867   1.487       .  S
C1862      C1863   1.407       .  A
C1863      C1864   1.394       .  A
C1863      O1868   1.372       .  S
C1864      C1865   1.404       .  A
C1864      H1869   1.083       .  S
C1865      C1866   1.415       .  A
C1866      O1870   1.371   1_565  S
C1867      C1872   1.410       .  A
C1867      C1876   1.403       .  A
O1868      H1884   0.992       .  S
O1870      H1881   0.992       .  S
C1872      C1873   1.407       .  A
C1872      O1877   1.371       .  S
C1873      C1874   1.407       .  A
C1873      H1878   1.083       .  S
C1874      C1875   1.409       .  A
C1875      C1876   1.397       .  A
C1875      O1879   1.373       .  S
C1876      H1880   1.084       .  S
O1877      H1882   0.992       .  S
O1879      H1883   0.992       .  S
C1885      C1886   1.404       .  A
C1885      C1890   1.401       .  A
C1885      H1895   1.084       .  S
C1886      C1891   1.485       .  S
C1886      C1887   1.407       .  A
C1887      C1888   1.402       .  A
C1887      O1892   1.371       .  S
C1888      C1889   1.406       .  A
C1888      H1893   1.083       .  S
C1889      C1890   1.411       .  A
C1890      O1894   1.372       .  S
C1891      C1896   1.406       .  A
C1891      C1900   1.405       .  A
O1892      H1908   0.992       .  S
O1894      H1905   0.992       .  S
C1896      C1897   1.398       .  A
C1896      O1901   1.373       .  S
C1897      C1898   1.407       .  A
C1897      H1902   1.084       .  S
C1898      C1899   1.411       .  A
C1899      C1900   1.405       .  A
C1899      O1903   1.371       .  S
C1900      H1904   1.083       .  S
O1901      H1906   0.992       .  S
O1903      H1907   0.992       .  S
C1909      C1910   1.403       .  A
C1909      C1914   1.402       .  A
C1909      H1919   1.084   1_545  S
C1910      C1915   1.482       .  S
C1910      C1911   1.406       .  A
C1911      C1912   1.398       .  A
C1911      O1916   1.372       .  S
C1912      C1913   1.409       .  A
C1912      H1917   1.083       .  S
C1913      C1914   1.415       .  A
C1914      O1918   1.371   1_545  S
C1915      C1920   1.406       .  A
C1915      C1924   1.402       .  A
O1916      H1932   0.992       .  S
O1918      H1929   0.992       .  S
C1920      C1921   1.402       .  A
C1920      O1925   1.372       .  S
C1921      C1922   1.409       .  A
C1921      H1926   1.083       .  S
C1922      C1923   1.414       .  A
C1923      C1924   1.401       .  A
C1923      O1927   1.371       .  S
C1924      H1928   1.084       .  S
O1925      H1930   0.992   1_545  S
O1927      H1931   0.992       .  S
C1933      C1934   1.404       .  A
C1933      C1938   1.397       .  A
C1933      H1943   1.084       .  S
C1934      C1939   1.489       .  S
C1934      C1935   1.412       .  A
C1935      C1936   1.407       .  A
C1935      O1940   1.371       .  S
C1936      C1937   1.405       .  A
C1936      H1941   1.084       .  S
C1937      C1938   1.410       .  A
C1938      O1942   1.372       .  S
C1939      C1944   1.410       .  A
C1939      C1948   1.400       .  A
O1940      H1956   0.992       .  S
O1942      H1953   0.992       .  S
C1944      C1945   1.407       .  A
C1944      O1949   1.371       .  S
C1945      C1946   1.409       .  A
C1945      H1950   1.083       .  S
C1946      C1947   1.417       .  A
C1947      C1948   1.395       .  A
C1947      O1951   1.373       .  S
C1948      H1952   1.084       .  S
O1949      H1954   0.992       .  S
O1951      H1955   0.992       .  S
C1957      C1958   1.407       .  A
C1957      C1962   1.407       .  A
C1957      H1967   1.083       .  S
C1958      C1963   1.487       .  S
C1958      C1959   1.408       .  A
C1959      C1960   1.396       .  A
C1959      O1964   1.372       .  S
C1960      C1961   1.404       .  A
C1960      H1965   1.084       .  S
C1961      C1962   1.410       .  A
C1962      O1966   1.371       .  S
C1963      C1968   1.408       .  A
C1963      C1972   1.400       .  A
O1964      H1980   0.992       .  S
O1966      H1977   0.992       .  S
C1968      C1969   1.407       .  A
C1968      O1973   1.371       .  S
C1969      C1970   1.410       .  A
C1969      H1974   1.083       .  S
C1970      C1971   1.417       .  A
C1971      C1972   1.395       .  A
C1971      O1975   1.372       .  S
C1972      H1976   1.084       .  S
O1973      H1978   0.992       .  S
O1975      H1979   0.992       .  S
C1981      C1982   1.400       .  A
C1981      C1986   1.394       .  A
C1981      H1991   1.084       .  S
C1982      C1987   1.482       .  S
C1982      C1983   1.410       .  A
C1983      C1984   1.404       .  A
C1983      O1988   1.372   1_655  S
C1984      C1985   1.407       .  A
C1984      H1989   1.084       .  S
C1985      C1986   1.413       .  A
C1986      O1990   1.371       .  S
C1987      C1992   1.407       .  A
C1987      C1996   1.402   1_655  A
O1988      H2004   0.992   1_455  S
O1990      H2001   0.992       .  S
C1992      C1993   1.398       .  A
C1992      O1997   1.372       .  S
C1993      C1994   1.408       .  A
C1993      H1998   1.083       .  S
C1994      C1995   1.415   1_655  A
C1995      C1996   1.402       .  A
C1995      O1999   1.371       .  S
C1996      H2000   1.084       .  S
O1997      H2002   0.992       .  S
O1999      H2003   0.992       .  S
C2005      C2006   1.402       .  A
C2005      C2010   1.398       .  A
C2005      H2015   1.084       .  S
C2006      C2011   1.471       .  S
C2006      C2007   1.404       .  A
C2007      C2008   1.393       .  A
C2007      O2012   1.372       .  S
C2008      C2009   1.407       .  A
C2008      H2013   1.083       .  S
C2009      C2010   1.411       .  A
C2010      O2014   1.371       .  S
C2011      C2016   1.404       .  A
C2011      C2020   1.403       .  A
O2012      H2028   0.992       .  S
O2014      H2025   0.992       .  S
C2016      C2017   1.395       .  A
C2016      O2021   1.372       .  S
C2017      C2018   1.403       .  A
C2017      H2022   1.084       .  S
C2018      C2019   1.410       .  A
C2019      C2020   1.398       .  A
C2019      O2023   1.373       .  S
C2020      H2024   1.084       .  S
O2021      H2026   0.992       .  S
O2023      H2027   0.992       .  S
C2029      C2030   1.402       .  A
C2029      C2034   1.402       .  A
C2029      H2039   1.083       .  S
C2030      C2035   1.469       .  S
C2030      C2031   1.403       .  A
C2031      C2032   1.389       .  A
C2031      O2036   1.372       .  S
C2032      C2033   1.405       .  A
C2032      H2037   1.084       .  S
C2033      C2034   1.411       .  A
C2034      O2038   1.372       .  S
C2035      C2040   1.403       .  A
C2035      C2044   1.400       .  A
O2036      H2052   0.991       .  S
O2038      H2049   0.992       .  S
C2040      C2041   1.400       .  A
C2040      O2045   1.371       .  S
C2041      C2042   1.407       .  A
C2041      H2046   1.083       .  S
C2042      C2043   1.409       .  A
C2043      C2044   1.393       .  A
C2043      O2047   1.370       .  S
C2044      H2048   1.084       .  S
O2045      H2050   0.992       .  S
O2047      H2051   0.992       .  S
C2053      C2054   1.401       .  A
C2053      C2058   1.393       .  A
C2053      H2063   1.084       .  S
C2054      C2059   1.469       .  S
C2054      C2055   1.407       .  A
C2055      C2056   1.394       .  A
C2055      O2060   1.372       .  S
C2056      C2057   1.403       .  A
C2056      H2061   1.084       .  S
C2057      C2058   1.410       .  A
C2058      O2062   1.372       .  S
C2059      C2064   1.404       .  A
C2059      C2068   1.400       .  A
O2060      H2076   0.992   1_545  S
O2062      H2073   0.992       .  S
C2064      C2065   1.392       .  A
C2064      O2069   1.373       .  S
C2065      C2066   1.407       .  A
C2065      H2070   1.083       .  S
C2066      C2067   1.415       .  A
C2067      C2068   1.395       .  A
C2067      O2071   1.372       .  S
C2068      H2072   1.084       .  S
O2069      H2074   0.992       .  S
O2071      H2075   0.992       .  S
C2077      C2078   1.405       .  A
C2077      C2082   1.404       .  A
C2077      H2087   1.084       .  S
C2078      C2083   1.485       .  S
C2078      C2079   1.406       .  A
C2079      C2080   1.400       .  A
C2079      O2084   1.373       .  S
C2080      C2081   1.407       .  A
C2080      H2085   1.084       .  S
C2081      C2082   1.412       .  A
C2082      O2086   1.371       .  S
C2083      C2088   1.409       .  A
C2083      C2092   1.402       .  A
O2084      H2100   0.992       .  S
O2086      H2097   0.992       .  S
C2088      C2089   1.400       .  A
C2088      O2093   1.372       .  S
C2089      C2090   1.406       .  A
C2089      H2094   1.084       .  S
C2090      C2091   1.415       .  A
C2091      C2092   1.403       .  A
C2091      O2095   1.372       .  S
C2092      H2096   1.084       .  S
O2093      H2098   0.992       .  S
O2095      H2099   0.992       .  S
C2101      C2102   1.404       .  A
C2101      C2106   1.397       .  A
C2101      H2111   1.084       .  S
C2102      C2107   1.494       .  S
C2102      C2103   1.412       .  A
C2103      C2104   1.409       .  A
C2103      O2108   1.373       .  S
C2104      C2105   1.407       .  A
C2104      H2109   1.083       .  S
C2105      C2106   1.414       .  A
C2106      O2110   1.373       .  S
C2107      C2112   1.413       .  A
C2107      C2116   1.406       .  A
O2108      H2124   0.992       .  S
O2110      H2121   0.992       .  S
C2112      C2113   1.405       .  A
C2112      O2117   1.371       .  S
C2113      C2114   1.404       .  A
C2113      H2118   1.083       .  S
C2114      C2115   1.412       .  A
C2115      C2116   1.398       .  A
C2115      O2119   1.372       .  S
C2116      H2120   1.084       .  S
O2117      H2122   0.992       .  S
O2119      H2123   0.992       .  S
C2125      C2126   1.398   1_455  A
C2125      C2130   1.400       .  A
C2125      H2135   1.084       .  S
C2126      C2131   1.471       .  S
C2126      C2127   1.403       .  A
C2127      C2128   1.398       .  A
C2127      O2132   1.372       .  S
C2128      C2129   1.409       .  A
C2128      H2133   1.083       .  S
C2129      C2130   1.415   1_655  A
C2130      O2134   1.371       .  S
C2131      C2136   1.402       .  A
C2131      C2140   1.397       .  A
O2132      H2148   0.992       .  S
O2134      H2145   0.992       .  S
C2136      C2137   1.398       .  A
C2136      O2141   1.371       .  S
C2137      C2138   1.408       .  A
C2137      H2142   1.083       .  S
C2138      C2139   1.419       .  A
C2139      C2140   1.399       .  A
C2139      O2143   1.372       .  S
C2140      H2144   1.084       .  S
O2141      H2146   0.992   1_655  S
O2143      H2147   0.992   1_565  S
C2149      C2150   1.406       .  A
C2149      C2154   1.407       .  A
C2149      H2159   1.083       .  S
C2150      C2155   1.485       .  S
C2150      C2151   1.407       .  A
C2151      C2152   1.398       .  A
C2151      O2156   1.372       .  S
C2152      C2153   1.404       .  A
C2152      H2157   1.084       .  S
C2153      C2154   1.410       .  A
C2154      O2158   1.372       .  S
C2155      C2160   1.406       .  A
C2155      C2164   1.402       .  A
O2156      H2172   0.992       .  S
O2158      H2169   0.992       .  S
C2160      C2161   1.406       .  A
C2160      O2165   1.371       .  S
C2161      C2162   1.411       .  A
C2161      H2166   1.083       .  S
C2162      C2163   1.415       .  A
C2163      C2164   1.399       .  A
C2163      O2167   1.371       .  S
C2164      H2168   1.084       .  S
O2165      H2170   0.992       .  S
O2167      H2171   0.992       .  S
C2173      C2174   1.400       .  A
C2173      C2178   1.396       .  A
C2173      H2183   1.083       .  S
C2174      C2179   1.489       .  S
C2174      C2175   1.411       .  A
C2175      C2176   1.408       .  A
C2175      O2180   1.372       .  S
C2176      C2177   1.409       .  A
C2176      H2181   1.083       .  S
C2177      C2178   1.415       .  A
C2178      O2182   1.371       .  S
C2179      C2184   1.411       .  A
C2179      C2188   1.406       .  A
O2180      H2196   0.992       .  S
O2182      H2193   0.991       .  S
C2184      C2185   1.401       .  A
C2184      O2189   1.373       .  S
C2185      C2186   1.402       .  A
C2185      H2190   1.084       .  S
C2186      C2187   1.407       .  A
C2187      C2188   1.403       .  A
C2187      O2191   1.372       .  S
C2188      H2192   1.083       .  S
O2189      H2194   0.992       .  S
O2191      H2195   0.992       .  S
C2197      C2198   1.405       .  A
C2197      C2202   1.409       .  A
C2197      H2207   1.083       .  S
C2198      C2203   1.484       .  S
C2198      C2199   1.403       .  A
C2199      C2200   1.396       .  A
C2199      O2204   1.372       .  S
C2200      C2201   1.411       .  A
C2200      H2205   1.083       .  S
C2201      C2202   1.416       .  A
C2202      O2206   1.371       .  S
C2203      C2208   1.405       .  A
C2203      C2212   1.401   1_655  A
O2204      H2220   0.992       .  S
O2206      H2217   0.992       .  S
C2208      C2209   1.404       .  A
C2208      O2213   1.371       .  S
C2209      C2210   1.410       .  A
C2209      H2214   1.083       .  S
C2210      C2211   1.418   1_655  A
C2211      C2212   1.402       .  A
C2211      O2215   1.371       .  S
C2212      H2216   1.084       .  S
O2213      H2218   0.991       .  S
O2215      H2219   0.992       .  S
C2221      C2222   1.404       .  A
C2221      C2226   1.407       .  A
C2221      H2231   1.083       .  S
C2222      C2227   1.478       .  S
C2222      C2223   1.403       .  A
C2223      C2224   1.392       .  A
C2223      O2228   1.373       .  S
C2224      C2225   1.409       .  A
C2224      H2229   1.083       .  S
C2225      C2226   1.414       .  A
C2226      O2230   1.371       .  S
C2227      C2232   1.407       .  A
C2227      C2236   1.403       .  A
O2228      H2244   0.992       .  S
O2230      H2241   0.992       .  S
C2232      C2233   1.394       .  A
C2232      O2237   1.372       .  S
C2233      C2234   1.403       .  A
C2233      H2238   1.084       .  S
C2234      C2235   1.411       .  A
C2235      C2236   1.404       .  A
C2235      O2239   1.371   1_565  S
C2236      H2240   1.084       .  S
O2237      H2242   0.992       .  S
O2239      H2243   0.992       .  S
C2245      C2246   1.405       .  A
C2245      C2250   1.403       .  A
C2245      H2255   1.083       .  S
C2246      C2251   1.479       .  S
C2246      C2247   1.406       .  A
C2247      C2248   1.394       .  A
C2247      O2252   1.372       .  S
C2248      C2249   1.404       .  A
C2248      H2253   1.084       .  S
C2249      C2250   1.409       .  A
C2250      O2254   1.371       .  S
C2251      C2256   1.405       .  A
C2251      C2260   1.403       .  A
O2252      H2268   0.992       .  S
O2254      H2265   0.992       .  S
C2256      C2257   1.400       .  A
C2256      O2261   1.372       .  S
C2257      C2258   1.410       .  A
C2257      H2262   1.083       .  S
C2258      C2259   1.412       .  A
C2259      C2260   1.397       .  A
C2259      O2263   1.372       .  S
C2260      H2264   1.084       .  S
O2261      H2266   0.992       .  S
O2263      H2267   0.992       .  S
C2269      C2270   1.403       .  A
C2269      C2274   1.398       .  A
C2269      H2279   1.083       .  S
C2270      C2275   1.484       .  S
C2270      C2271   1.409       .  A
C2271      C2272   1.400       .  A
C2271      O2276   1.372   1_545  S
C2272      C2273   1.407       .  A
C2272      H2277   1.083   1_545  S
C2273      C2274   1.413       .  A
C2274      O2278   1.372       .  S
C2275      C2280   1.406       .  A
C2275      C2284   1.404       .  A
O2276      H2292   0.992       .  S
O2278      H2289   0.992       .  S
C2280      C2281   1.397       .  A
C2280      O2285   1.373       .  S
C2281      C2282   1.410       .  A
C2281      H2286   1.083       .  S
C2282      C2283   1.413       .  A
C2283      C2284   1.402       .  A
C2283      O2287   1.371       .  S
C2284      H2288   1.083       .  S
O2285      H2290   0.992       .  S
O2287      H2291   0.992       .  S
C2293      C2294   1.401       .  A
C2293      C2298   1.400       .  A
C2293      H2303   1.084       .  S
C2294      C2299   1.480       .  S
C2294      C2295   1.405       .  A
C2295      C2296   1.403       .  A
C2295      O2300   1.372       .  S
C2296      C2297   1.410       .  A
C2296      H2301   1.083       .  S
C2297      C2298   1.413       .  A
C2298      O2302   1.371       .  S
C2299      C2304   1.408       .  A
C2299      C2308   1.401       .  A
O2300      H2316   0.992       .  S
O2302      H2313   0.992       .  S
C2304      C2305   1.402       .  A
C2304      O2309   1.371       .  S
C2305      C2306   1.406       .  A
C2305      H2310   1.083       .  S
C2306      C2307   1.412       .  A
C2307      C2308   1.398       .  A
C2307      O2311   1.371       .  S
C2308      H2312   1.084       .  S
O2309      H2314   0.992       .  S
O2311      H2315   0.992       .  S
C2317      C2318   1.398       .  A
C2317      C2322   1.396       .  A
C2317      H2327   1.084       .  S
C2318      C2323   1.473       .  S
C2318      C2319   1.407       .  A
C2319      C2320   1.405       .  A
C2319      O2324   1.371       .  S
C2320      C2321   1.405       .  A
C2320      H2325   1.084       .  S
C2321      C2322   1.409       .  A
C2322      O2326   1.372       .  S
C2323      C2328   1.403       .  A
C2323      C2332   1.400       .  A
O2324      H2340   0.992       .  S
O2326      H2337   0.992       .  S
C2328      C2329   1.396       .  A
C2328      O2333   1.372       .  S
C2329      C2330   1.407       .  A
C2329      H2334   1.083       .  S
C2330      C2331   1.416       .  A
C2331      C2332   1.403       .  A
C2331      O2335   1.371       .  S
C2332      H2336   1.084       .  S
O2333      H2338   0.992       .  S
O2335      H2339   0.992       .  S
C2341      C2342   1.399       .  A
C2341      C2346   1.396       .  A
C2341      H2351   1.084       .  S
C2342      C2347   1.479       .  S
C2342      C2343   1.407   1_556  A
C2343      C2344   1.403       .  A
C2343      O2348   1.372       .  S
C2344      C2345   1.407       .  A
C2344      H2349   1.083       .  S
C2345      C2346   1.417   1_554  A
C2346      O2350   1.372       .  S
C2347      C2352   1.408       .  A
C2347      C2356   1.401   1_556  A
O2348      H2364   0.992   1_554  S
O2350      H2361   0.992   1_566  S
C2352      C2353   1.401       .  A
C2352      O2357   1.371       .  S
C2353      C2354   1.405       .  A
C2353      H2358   1.084       .  S
C2354      C2355   1.409   1_556  A
C2355      C2356   1.398       .  A
C2355      O2359   1.372       .  S
C2356      H2360   1.084       .  S
O2357      H2362   0.992       .  S
O2359      H2363   0.992       .  S
C2365      C2366   1.406       .  A
C2365      C2370   1.409       .  A
C2365      H2375   1.083       .  S
C2366      C2371   1.483       .  S
C2366      C2367   1.405       .  A
C2367      C2368   1.394       .  A
C2367      O2372   1.372       .  S
C2368      C2369   1.405       .  A
C2368      H2373   1.084       .  S
C2369      C2370   1.411       .  A
C2370      O2374   1.371       .  S
C2371      C2376   1.406       .  A
C2371      C2380   1.403       .  A
O2372      H2388   0.992       .  S
O2374      H2385   0.991       .  S
C2376      C2377   1.403       .  A
C2376      O2381   1.371       .  S
C2377      C2378   1.407       .  A
C2377      H2382   1.083       .  S
C2378      C2379   1.411       .  A
C2379      C2380   1.399       .  A
C2379      O2383   1.372       .  S
C2380      H2384   1.084       .  S
O2381      H2386   0.992       .  S
O2383      H2387   0.992       .  S
C2389      C2390   1.404       .  A
C2389      C2394   1.407       .  A
C2389      H2399   1.083       .  S
C2390      C2395   1.488       .  S
C2390      C2391   1.407       .  A
C2391      C2392   1.399       .  A
C2391      O2396   1.372       .  S
C2392      C2393   1.410       .  A
C2392      H2397   1.083       .  S
C2393      C2394   1.416       .  A
C2394      O2398   1.371       .  S
C2395      C2400   1.410       .  A
C2395      C2404   1.401       .  A
O2396      H2412   0.992       .  S
O2398      H2409   0.992       .  S
C2400      C2401   1.408       .  A
C2400      O2405   1.371       .  S
C2401      C2402   1.406       .  A
C2401      H2406   1.083       .  S
C2402      C2403   1.413       .  A
C2403      C2404   1.398       .  A
C2403      O2407   1.372       .  S
C2404      H2408   1.084       .  S
O2405      H2410   0.991       .  S
O2407      H2411   0.992       .  S
C2413      C2414   1.401       .  A
C2413      C2418   1.396       .  A
C2413      H2423   1.084       .  S
C2414      C2419   1.478       .  S
C2414      C2415   1.406       .  A
C2415      C2416   1.399       .  A
C2415      O2420   1.372       .  S
C2416      C2417   1.411       .  A
C2416      H2421   1.083       .  S
C2417      C2418   1.414       .  A
C2418      O2422   1.372       .  S
C2419      C2424   1.406   1_554  A
C2419      C2428   1.402       .  A
O2420      H2436   0.992       .  S
O2422      H2433   0.992       .  S
C2424      C2425   1.396       .  A
C2424      O2429   1.373       .  S
C2425      C2426   1.405   1_556  A
C2425      H2430   1.083       .  S
C2426      C2427   1.414       .  A
C2427      C2428   1.401       .  A
C2427      O2431   1.371       .  S
C2428      H2432   1.084       .  S
O2429      H2434   0.992       .  S
O2431      H2435   0.992       .  S
C2437      C2438   1.401       .  A
C2437      C2442   1.403       .  A
C2437      H2447   1.084       .  S
C2438      C2443   1.480       .  S
C2438      C2439   1.407       .  A
C2439      C2440   1.397       .  A
C2439      O2444   1.372       .  S
C2440      C2441   1.406       .  A
C2440      H2445   1.084       .  S
C2441      C2442   1.416       .  A
C2442      O2446   1.372       .  S
C2443      C2448   1.407       .  A
C2443      C2452   1.399       .  A
O2444      H2460   0.992       .  S
O2446      H2457   0.992       .  S
C2448      C2449   1.404       .  A
C2448      O2453   1.371       .  S
C2449      C2450   1.408       .  A
C2449      H2454   1.083       .  S
C2450      C2451   1.412       .  A
C2451      C2452   1.398       .  A
C2451      O2455   1.371       .  S
C2452      H2456   1.084       .  S
O2453      H2458   0.992       .  S
O2455      H2459   0.992       .  S
C2461      C2462   1.405       .  A
C2461      C2466   1.402       .  A
C2461      H2471   1.083       .  S
C2462      C2467   1.489       .  S
C2462      C2463   1.412       .  A
C2463      C2464   1.401       .  A
C2463      O2468   1.372       .  S
C2464      C2465   1.403       .  A
C2464      H2469   1.084       .  S
C2465      C2466   1.409       .  A
C2466      O2470   1.372       .  S
C2467      C2472   1.411       .  A
C2467      C2476   1.401       .  A
O2468      H2484   0.992       .  S
O2470      H2481   0.992       .  S
C2472      C2473   1.409       .  A
C2472      O2477   1.372       .  S
C2473      C2474   1.408       .  A
C2473      H2478   1.083       .  S
C2474      C2475   1.415       .  A
C2475      C2476   1.394       .  A
C2475      O2479   1.372       .  S
C2476      H2480   1.084       .  S
O2477      H2482   0.992       .  S
O2479      H2483   0.992       .  S
C2485      C2486   1.399   1_554  A
C2485      C2490   1.396       .  A
C2485      H2495   1.084       .  S
C2486      C2491   1.483       .  S
C2486      C2487   1.409       .  A
C2487      C2488   1.404       .  A
C2487      O2492   1.372       .  S
C2488      C2489   1.409       .  A
C2488      H2493   1.083       .  S
C2489      C2490   1.416   1_556  A
C2490      O2494   1.369       .  S
C2491      C2496   1.407       .  A
C2491      C2500   1.401       .  A
O2492      H2508   0.992       .  S
O2494      H2505   0.992       .  S
C2496      C2497   1.398       .  A
C2496      O2501   1.372       .  S
C2497      C2498   1.409       .  A
C2497      H2502   1.083   1_556  S
C2498      C2499   1.416       .  A
C2499      C2500   1.401       .  A
C2499      O2503   1.372       .  S
C2500      H2504   1.084       .  S
O2501      H2506   0.992       .  S
O2503      H2507   0.991   1_556  S
