geometry optimzed in LAMMPS
_audit_creation_date              2020-12-01 
_audit_creation_method            'lammps2cif' 
_symmetry_space_group_name_H-M    'P1' 
_symmetry_Int_Tables_number       1 
_symmetry_cell_setting            triclinic 
loop_ 
_symmetry_equiv_pos_as_xyz 
  x,y,z 
_cell_length_a                    50.0619377 
_cell_length_b                    56.428315992087484 
_cell_length_c                    53.42660873519263 
_cell_angle_alpha                 90.3289201329496 
_cell_angle_beta                  89.89530452434437 
_cell_angle_gamma                 89.98307452648774 
loop_ 
_atom_site_label 
_atom_site_type_symbol 
_atom_site_fract_x 
_atom_site_fract_y 
_atom_site_fract_z 
_atom_site_charge 
C1          C  0.07784982  0.67925393  0.93104537     0.80100
N2          N  0.06798482  0.68249278  0.90784216    -0.78200
C3          C  0.04424796  0.67337121  0.90077225     0.82500
N4          N  0.02965015  0.66039151  0.91740780    -0.78200
C5          C  0.03957970  0.65633845  0.94088011     0.82600
N6          N  0.06356633  0.66609967  0.94764121    -0.79900
C7          C  0.86881320  0.67735366  0.93444417     0.80100
N8          N  0.88457125  0.66458077  0.95016011    -0.78200
C9          C  0.90894088  0.65620674  0.94243373     0.82500
N10         N  0.91778914  0.66131444  0.91877011    -0.78200
C11         C  0.90190974  0.67419571  0.90308524     0.82600
N12         N  0.87782574  0.68191540  0.91112937    -0.79900
C13         C  0.90735508  0.67234088  0.15140776     0.80100
N14         N  0.88430876  0.68275691  0.14425685    -0.78200
C15         C  0.87604513  0.68205276  0.12023303     0.82500
N16         N  0.89110409  0.67022883  0.10295427    -0.78200
C17         C  0.91405699  0.65885036  0.10985995     0.82600
N18         N  0.92252548  0.66043741  0.13415541    -0.79900
C19         C  0.05352068  0.66880705  0.14928146     0.80100
N20         N  0.03699208  0.65694680  0.13310130    -0.78200
C21         C  0.04441412  0.65409603  0.10852310     0.82500
N22         N  0.06790283  0.66396777  0.10038476    -0.78200
C23         C  0.08405864  0.67606389  0.11651526     0.82600
N24         N  0.07661459  0.67808206  0.14071001    -0.79900
C25         C  0.90839523  0.52788896  0.14915004     0.80100
N26         N  0.88468117  0.51850241  0.14224585    -0.78200
C27         C  0.87440377  0.52196216  0.11919394     0.82500
N28         N  0.88840768  0.53539440  0.10255949    -0.78200
C29         C  0.91242295  0.54531128  0.10907829     0.82600
N30         N  0.92256581  0.54127623  0.13249820    -0.79900
C31         C  0.87220252  0.52369313  0.93182191     0.80100
N32         N  0.88717660  0.53697778  0.94781243    -0.78200
C33         C  0.91101073  0.54645008  0.94029514     0.82500
N34         N  0.92005843  0.54203974  0.91638242    -0.78200
C35         C  0.90467619  0.52882807  0.90029668     0.82600
N36         N  0.88116849  0.51998874  0.90832180    -0.79900
C37         C  0.07881839  0.52491138  0.92935144     0.80100
N38         N  0.06889227  0.52130173  0.90619274    -0.78200
C39         C  0.04459966  0.52935804  0.89942106     0.82500
N40         N  0.02947374  0.54178740  0.91635333    -0.78200
C41         C  0.03937043  0.54622211  0.93986565     0.82600
N42         N  0.06389813  0.53735386  0.94629002    -0.79900
C43         C  0.04147532  0.52654272  0.14890223     0.80100
N44         N  0.02707699  0.53998632  0.13250247    -0.78200
C45         C  0.03639518  0.54312772  0.10857784     0.82500
N46         N  0.05968334  0.53233928  0.10137963    -0.78200
C47         C  0.07381416  0.51888239  0.11777378     0.82600
N48         N  0.06444741  0.51625572  0.14128004    -0.79900
O49         O  0.03051193  0.64650528  0.98284609    -0.75400
O50         O  0.00531337  0.62864374  0.95248233    -0.54400
C51         C  0.02404545  0.64285418  0.95979723     0.78300
O52         O  0.02678270  0.55286451  0.06656271    -0.60000
O53         O  0.00434092  0.57304473  0.09731450    -0.53100
C54         C  0.02133941  0.55726916  0.08976857     0.70300
O55         O  0.02934558  0.55515013  0.98219472    -0.74600
O56         O  0.00514095  0.57412816  0.95207795    -0.55200
C57         C  0.02344862  0.55939441  0.95913536     0.76300
O58         O  0.03207586  0.64600495  0.06671685    -0.59700
O59         O  0.00819075  0.62746758  0.09741242    -0.52900
C60         C  0.02689526  0.64168412  0.08990320     0.72900
Zr61       Zr  0.01576160  0.63555075  0.02488315     2.54700
O62         O  0.06436904  0.63603803  0.02379471    -0.80300
O63         O  0.01289504  0.67862961  0.02492525    -0.93700
Zr64       Zr  0.01392151  0.56582287  0.02442643     2.64700
O65         O  0.06257695  0.56524206  0.02539172    -0.98700
O66         O  0.00965671  0.52287734  0.02252066    -0.80700
O67         O  0.01507104  0.60069974  0.99976249    -0.84100
O68         O  0.01549993  0.60062103  0.04946253    -2.18800
O69         O  0.92394907  0.65004088  0.06759917    -0.67500
O70         O  0.94689590  0.62980246  0.09766239    -0.52100
C71         C  0.92953345  0.64540577  0.09061012     0.71300
O72         O  0.92088807  0.55649163  0.98229781    -0.60400
O73         O  0.94544090  0.57449667  0.95172247    -0.52400
C74         C  0.92698723  0.56008889  0.95910559     0.73100
O75         O  0.92144006  0.55529320  0.06692672    -0.71800
O76         O  0.94570590  0.57418356  0.09730653    -0.50500
C77         C  0.92761814  0.55923704  0.09003026     0.74500
O78         O  0.92064838  0.64742140  0.98397694    -0.67100
O79         O  0.94424064  0.62869642  0.95297770    -0.54300
C80         C  0.92587659  0.64318544  0.96075685     0.72800
Zr81       Zr  0.93729803  0.63732323  0.02551140     2.77500
O82         O  0.88866951  0.63913488  0.02624699    -0.97900
O83         O  0.94299354  0.68011842  0.02342493    -0.78700
Zr84       Zr  0.93510132  0.56770649  0.02481538     2.70100
O85         O  0.88660990  0.57104239  0.02537187    -0.79900
O86         O  0.93465708  0.52458153  0.02338192    -0.99000
Zr87       Zr  0.97518246  0.60158288  0.97491918     2.21500
Zr88       Zr  0.97595186  0.60157345  0.07494631     2.11100
O89         O  0.93597911  0.60245859  0.05012608    -2.47700
O90         O  0.93565268  0.60256054  0.00028700    -0.79700
O91         O  0.97673201  0.63690160  0.05021603    -0.71900
O92         O  0.97441516  0.56635514  0.99990608    -2.32900
O93         O  0.97633575  0.63684894  0.00026258    -2.29100
O94         O  0.97462739  0.56649693  0.04938540    -0.73700
H95         H  0.03129522  0.60013524  0.05981283     0.78300
H96         H  0.97407023  0.55238977  0.98936545     0.79400
H97         H  0.92032572  0.60278554  0.06078096     0.81600
H98         H  0.97654073  0.65077206  0.98989460     0.79200
H99         H  0.02771707  0.51718475  0.01786021     0.42300
H100        H  0.94709447  0.51970484  0.03677724     0.41200
H101        H  0.88015818  0.55471761  0.02215855     0.40900
H102        H  0.88319336  0.62719140  0.03874442     0.38800
H103        H  0.92492621  0.68628496  0.01968187     0.42000
H104        H  0.02931656  0.68397897  0.03359627     0.36800
H105        H  0.06964926  0.61946632  0.02718906     0.42900
H106        H  0.06749676  0.57409836  0.04075685     0.39300
H107        H  0.88434260  0.65459528  0.03413285     0.44200
H108        H  0.99826535  0.68239019  0.03677221     0.42900
H109        H  0.06725647  0.54857558  0.02908416     0.43100
H110        H  0.91673659  0.52012063  0.02968049     0.43400
C111        C  0.54846856  0.00908630  0.12855876     0.80100
N112        N  0.53808896  0.02566286  0.11284850    -0.78200
C113        C  0.52959538  0.01937254  0.08935026     0.82500
N114        N  0.53232600  0.99634302  0.08145315    -0.78200
C115        C  0.54249756  0.97978676  0.09737832     0.82600
N116        N  0.55023298  0.98643962  0.12054926    -0.79900
C117        C  0.55818505  0.00937184  0.92613197     0.80100
N118        N  0.54492324  0.02558180  0.94046316    -0.78200
C119        C  0.53477761  0.01950336  0.96329548     0.82500
N120        N  0.53839892  0.99691391  0.97192676    -0.78200
C121        C  0.55154139  0.98063023  0.95740740     0.82600
N122        N  0.56121320  0.98708565  0.93480783    -0.79900
C123        C  0.55291457  0.21891491  0.95842799     0.80100
N124        N  0.56249329  0.21193369  0.93588610    -0.78200
C125        C  0.55962488  0.18941327  0.92755204     0.82500
N126        N  0.54661477  0.17349719  0.94223832    -0.78200
C127        C  0.53643043  0.18008023  0.96499132     0.82600
N128        N  0.53989127  0.20292469  0.97325570    -0.79900
C129        C  0.55760133  0.21680117  0.09034490     0.80100
N130        N  0.57025420  0.20892600  0.11105242    -0.78200
C131        C  0.56783643  0.18621957  0.11856509     0.82500
N132        N  0.55236350  0.17110360  0.10509477    -0.78200
C133        C  0.53949270  0.17854329  0.08409213     0.82600
N134        N  0.54227500  0.20155130  0.07652767    -0.79900
C135        C  0.40107800  0.21980503  0.95623731     0.80100
N136        N  0.39313609  0.21246536  0.93329497    -0.78200
C137        C  0.39578329  0.18969552  0.92590806     0.82500
N138        N  0.40695957  0.17385332  0.94179292    -0.78200
C139        C  0.41590919  0.18078025  0.96478953     0.82600
N140        N  0.41255357  0.20390612  0.97228826    -0.79900
C141        C  0.39655947  0.01144298  0.92179142     0.80100
N142        N  0.40889906  0.02742331  0.93706896    -0.78200
C143        C  0.41783949  0.02083168  0.96019421     0.82500
N144        N  0.41375209  0.99805894  0.96813629    -0.78200
C145        C  0.40157949  0.98206552  0.95260146     0.82600
N146        N  0.39328093  0.98899519  0.92978288    -0.79900
C147        C  0.39465130  0.00967339  0.12379572     0.80100
N148        N  0.39261754  0.98711695  0.11536110    -0.78200
C149        C  0.40208596  0.98068107  0.09258666     0.82500
N150        N  0.41394891  0.99720887  0.07772116    -0.78200
C151        C  0.41652970  0.02002405  0.08609790     0.82600
N152        N  0.40666283  0.02614022  0.10907684    -0.79900
C153        C  0.39550500  0.21748916  0.09333748     0.80100
N154        N  0.38481587  0.20990373  0.11508836    -0.78200
C155        C  0.38789858  0.18739921  0.12292488     0.82500
N156        N  0.40237351  0.17204979  0.10860648    -0.78200
C157        C  0.41355003  0.17923397  0.08652309     0.82600
N158        N  0.40980094  0.20207552  0.07869235    -0.79900
O159        O  0.52334227  0.05958376  0.07822427    -0.75400
O160        O  0.50311818  0.03123264  0.05413347    -0.54400
C161        C  0.51802051  0.03780222  0.07266532     0.78300
O162        O  0.42356110  0.13965858  0.07620142    -0.60000
O163        O  0.44503136  0.16853227  0.05413359    -0.53100
C164        C  0.42839908  0.16152971  0.07111944     0.70300
O165        O  0.42493805  0.06011726  0.07657036    -0.74600
O166        O  0.44507212  0.03161964  0.05250774    -0.55200
C167        C  0.42965770  0.03833735  0.07059178     0.76300
O168        O  0.52818869  0.13905131  0.07491282    -0.59700
O169        O  0.50680479  0.16814208  0.05310426    -0.52900
C170        C  0.52373675  0.16095841  0.06961537     0.72900
Zr171      Zr  0.51452240  0.09935309  0.06177394     2.54700
O172        O  0.51701003  0.10112553  0.10723409    -0.80300
O173        O  0.56280683  0.09709604  0.05678692    -0.93700
Zr174      Zr  0.43555001  0.09993127  0.06157854     2.64700
O175        O  0.43069254  0.09878106  0.10695156    -0.98700
O176        O  0.38742555  0.10004395  0.05511059    -0.80700
O177        O  0.47486581  0.07653529  0.06173576    -0.84100
O178        O  0.47525365  0.12301282  0.06261312    -2.18800
O179        O  0.52730929  0.14006829  0.97484210    -0.67500
O180        O  0.50570515  0.16874873  0.99749225    -0.52100
C181        C  0.52229258  0.16194845  0.98031621     0.71300
O182        O  0.42606795  0.06079943  0.97141436    -0.60400
O183        O  0.44596400  0.03188138  0.99468363    -0.52400
C184        C  0.43080336  0.03887664  0.97660868     0.73100
O185        O  0.42408955  0.14082046  0.97513212    -0.71800
O186        O  0.44556351  0.16936187  0.99799559    -0.50500
C187        C  0.42918778  0.16267386  0.98068883     0.74500
O188        O  0.52549126  0.05971839  0.97291290    -0.67100
O189        O  0.50516980  0.03118325  0.99641942    -0.54300
C190        C  0.52088535  0.03787174  0.97862486     0.72800
Zr191      Zr  0.51495755  0.09988400  0.98821342     2.77500
O192        O  0.51863181  0.09952873  0.94270967    -0.97900
O193        O  0.56315752  0.09927331  0.99405584    -0.78700
Zr194      Zr  0.43580009  0.10045282  0.98824455     2.70100
O195        O  0.43154670  0.10199039  0.94291791    -0.79900
O196        O  0.38771669  0.09886473  0.99501246    -0.99000
Zr197      Zr  0.47500676  0.05308471  0.02435936     2.21500
Zr198      Zr  0.47548797  0.14701599  0.02561383     2.11100
O199        O  0.47554236  0.12339283  0.98805403    -2.47700
O200        O  0.47520310  0.07705484  0.98756329    -0.79700
O201        O  0.51516827  0.12324254  0.02532595    -0.71900
O202        O  0.43495266  0.07641606  0.02457609    -2.32900
O203        O  0.51532744  0.07596370  0.02470443    -2.29100
O204        O  0.43537061  0.12391943  0.02523035    -0.73700
H205        H  0.47537427  0.13279427  0.07747405     0.78300
H206        H  0.41949851  0.06648961  0.02438874     0.79400
H207        H  0.47561947  0.13335088  0.97340870     0.81600
H208        H  0.53070888  0.06585667  0.02471083     0.79200
H209        H  0.38016579  0.10919249  0.06946120     0.42300
H210        H  0.38229768  0.11557552  0.99764891     0.41200
H211        H  0.44925502  0.09689677  0.93658462     0.40900
H212        H  0.50319362  0.10894655  0.93688209     0.38800
H213        H  0.57013630  0.09075173  0.97917576     0.42000
H214        H  0.56999549  0.10302876  0.07289198     0.36800
H215        H  0.49813090  0.10126791  0.11278944     0.42900
H216        H  0.44348498  0.11070559  0.11336765     0.39300
H217        H  0.53445225  0.10939668  0.93881143     0.44200
H218        H  0.56713627  0.10973148  0.04464959     0.42900
H219        H  0.41283808  0.10566654  0.11039030     0.43100
H220        H  0.38023499  0.09454933  0.97846958     0.43400
C221        C  0.08072616  0.00964022  0.60563204     0.80100
N222        N  0.07199287  0.98717612  0.60864765    -0.78200
C223        C  0.04806965  0.97997206  0.59967181     0.82500
N224        N  0.03227344  0.99564976  0.58707434    -0.78200
C225        C  0.04101200  0.01836103  0.58339680     0.82600
N226        N  0.06507118  0.02522908  0.59303401    -0.79900
C227        C  0.87400374  0.01019579  0.60765042     0.80100
N228        N  0.88277273  0.98771781  0.60961347    -0.78200
C229        C  0.90566539  0.98051541  0.59867775     0.82500
N230        N  0.92061228  0.99621143  0.58529028    -0.78200
C231        C  0.91184543  0.01906102  0.58274240     0.82600
N232        N  0.88859020  0.02595405  0.59414587    -0.79900
C233        C  0.90254017  0.21813390  0.59410508     0.80100
N234        N  0.91814367  0.20163285  0.58224806    -0.78200
C235        C  0.90922281  0.17875648  0.57979090     0.82500
N236        N  0.88507167  0.17263002  0.59000674    -0.78200
C237        C  0.86973020  0.18914399  0.60203755     0.82600
N238        N  0.87872853  0.21162762  0.60372252    -0.79900
C239        C  0.04609353  0.21691821  0.59979906     0.80100
N240        N  0.03064476  0.20088021  0.58712706    -0.78200
C241        C  0.03801153  0.17749308  0.58651694     0.82500
N242        N  0.06014906  0.17041338  0.59942680    -0.78200
C243        C  0.07540656  0.18646655  0.61198268     0.82600
N244        N  0.06822088  0.20949229  0.61185104    -0.79900
C245        C  0.91377015  0.21552636  0.44415739     0.80100
N246        N  0.89304679  0.20717893  0.43058450    -0.78200
C247        C  0.88583590  0.18415280  0.43130328     0.82500
N248        N  0.89973259  0.16905217  0.44610210    -0.78200
C249        C  0.92050284  0.17693726  0.46043762     0.82600
N250        N  0.92780450  0.20039302  0.45926602    -0.79900
C251        C  0.87486415  0.00686626  0.44442466     0.80100
N252        N  0.88393603  0.98436915  0.44273493    -0.78200
C253        C  0.90735939  0.97776865  0.45307072     0.82500
N254        N  0.92236411  0.99414902  0.46568903    -0.78200
C255        C  0.91327731  0.01696450  0.46811800     0.82600
N256        N  0.88963494  0.02320719  0.45717028    -0.79900
C257        C  0.07992924  0.00762498  0.44279532     0.80100
N258        N  0.07170301  0.98487104  0.44178178    -0.78200
C259        C  0.04954409  0.97755244  0.45390741     0.82500
N260        N  0.03472439  0.99354630  0.46742156    -0.78200
C261        C  0.04287998  0.01674386  0.46899993     0.82600
N262        N  0.06550877  0.02357963  0.45650935    -0.79900
C263        C  0.04406997  0.21451546  0.44843565     0.80100
N264        N  0.02971278  0.19915255  0.46283688    -0.78200
C265        C  0.03936237  0.17675934  0.46677104     0.82500
N266        N  0.06283916  0.16999261  0.45590383    -0.78200
C267        C  0.07686595  0.18532320  0.44150153     0.82600
N268        N  0.06731049  0.20739446  0.43802103    -0.79900
O269        O  0.03310706  0.05694048  0.47861618    -0.75400
O270        O  0.00799892  0.02854118  0.49786590    -0.54400
C271        C  0.02690115  0.03509923  0.48284450     0.78300
O272        O  0.02831242  0.13763034  0.57683402    -0.60000
O273        O  0.00548088  0.16619736  0.55551253    -0.53100
C274        C  0.02267797  0.15943520  0.57206575     0.70300
O275        O  0.03019288  0.05806999  0.57458196    -0.74600
O276        O  0.00653514  0.02912235  0.55436080    -0.55200
C277        C  0.02464481  0.03616535  0.56991883     0.76300
O278        O  0.03029069  0.13711796  0.47699849    -0.59700
O279        O  0.00658992  0.16612657  0.49726700    -0.52900
C280        C  0.02428904  0.15900670  0.48134783     0.72900
Zr281      Zr  0.01766925  0.09704787  0.48978672     2.54700
O282        O  0.06618655  0.09797033  0.49272812    -0.80300
O283        O  0.01768500  0.09621880  0.44419284    -0.93700
Zr284      Zr  0.01516408  0.09788330  0.56327017     2.64700
O285        O  0.06384575  0.09801022  0.56316290    -0.98700
O286        O  0.01168818  0.09678172  0.60869735    -0.80700
O287        O  0.01688159  0.07397319  0.52666385    -0.84100
O288        O  0.01670732  0.12114169  0.52643069    -2.18800
O289        O  0.92891571  0.13736917  0.47224023    -0.67500
O290        O  0.95017625  0.16653973  0.49433652    -0.52100
C291        C  0.93437597  0.15936345  0.47673972     0.71300
O292        O  0.92167423  0.05878502  0.57311073    -0.60400
O293        O  0.94625426  0.02981330  0.55372359    -0.52400
C294        C  0.92771195  0.03690548  0.56887717     0.73100
O295        O  0.91992886  0.13838555  0.57187284    -0.71800
O296        O  0.94486611  0.16666216  0.55223287    -0.50500
C297        C  0.92584521  0.16018565  0.56713510     0.74500
O298        O  0.92340711  0.05719402  0.47669579    -0.67100
O299        O  0.94735321  0.02876587  0.49713384    -0.54300
C300        C  0.92913635  0.03538198  0.48155618     0.72800
Zr301      Zr  0.93889814  0.09730309  0.48745470     2.77500
O302        O  0.89023473  0.09886631  0.48666289    -0.97900
O303        O  0.94304883  0.09502784  0.44210939    -0.78700
Zr304      Zr  0.93644089  0.09847354  0.56128139     2.70100
O305        O  0.88785378  0.09696593  0.56158808    -0.79900
O306        O  0.94023790  0.10014216  0.60669755    -0.99000
Zr307      Zr  0.97706093  0.05061942  0.52558664     2.21500
Zr308      Zr  0.97675162  0.14477901  0.52547128     2.11100
O309        O  0.93685705  0.12131762  0.52407933    -2.47700
O310        O  0.93743602  0.07447632  0.52457095    -0.79700
O311        O  0.97831881  0.12047643  0.48857186    -0.71900
O312        O  0.97567898  0.07468956  0.56277226    -2.32900
O313        O  0.97821951  0.07371239  0.48808593    -2.29100
O314        O  0.97589228  0.12165649  0.56281935    -0.73700
H315        H  0.03233597  0.13116971  0.52679115     0.78300
H316        H  0.97526817  0.06491635  0.57749068     0.79400
H317        H  0.92118547  0.13129299  0.52329144     0.81600
H318        H  0.97863440  0.06363961  0.47360026     0.79200
H319        H  0.99917890  0.10978057  0.61299198     0.42300
H320        H  0.94709161  0.11625736  0.61036893     0.41200
H321        H  0.88240533  0.10650881  0.54696655     0.40900
H322        H  0.88562313  0.11591697  0.48732625     0.38800
H323        H  0.92440443  0.09445876  0.43598469     0.42000
H324        H  0.01049278  0.08044540  0.43960574     0.36800
H325        H  0.07238528  0.10014554  0.47527925     0.42900
H326        H  0.06893345  0.11078556  0.55146117     0.39300
H327        H  0.88534976  0.09379270  0.46949496     0.44200
H328        H  0.03681384  0.09544080  0.43949987     0.42900
H329        H  0.06890810  0.10412220  0.57990314     0.43100
H330        H  0.92154224  0.10042205  0.61274923     0.43400
C331        C  0.00606739  0.43798354  0.29670417    -0.11000
C332        C  0.98206104  0.44847341  0.28986250    -0.04900
C333        C  0.95737482  0.43969378  0.29722198    -0.11000
C334        C  0.95628182  0.42049658  0.31418604     0.10000
C335        C  0.98064105  0.41006544  0.32252242    -0.02800
C336        C  0.00568092  0.41831941  0.31309193     0.09800
C337        C  0.02927952  0.40679218  0.32035519    -0.12800
C338        C  0.02855474  0.38778877  0.33709097    -0.12800
C339        C  0.00423973  0.37991100  0.34727002     0.09800
C340        C  0.97993434  0.39101604  0.33984399    -0.02800
C341        C  0.93186775  0.41158056  0.32313677    -0.12900
C342        C  0.93119399  0.39312100  0.34059973    -0.12900
C343        C  0.95490503  0.38276542  0.34936173     0.10000
C344        C  0.95470580  0.36438583  0.36742824    -0.11000
C345        C  0.97882686  0.35464603  0.37501624    -0.04900
C346        C  0.00322847  0.36125746  0.36481105    -0.11000
H347        H  0.04846176  0.41258959  0.31326580     0.07200
H348        H  0.04720895  0.37950213  0.34238444     0.07200
H349        H  0.91315201  0.41920722  0.31700695     0.07400
H350        H  0.91198940  0.38707110  0.34738761     0.07400
H351        H  0.98252644  0.46291654  0.27646019     0.03800
H352        H  0.97845477  0.34003927  0.38822643     0.03800
C353        C  0.30798612  0.07782490  0.27180335    -0.11000
C354        C  0.31658786  0.09989387  0.26356025    -0.04900
C355        C  0.30634922  0.12102505  0.27317741    -0.11000
C356        C  0.28656720  0.12020751  0.29207320     0.10000
C357        C  0.27763291  0.09775893  0.30091625    -0.02800
C358        C  0.28813253  0.07644745  0.29051354     0.09800
C359        C  0.27870968  0.05450919  0.29920638    -0.12800
C360        C  0.25941178  0.05338724  0.31806698    -0.12800
C361        C  0.24902487  0.07416672  0.32886703     0.09800
C362        C  0.25810431  0.09660556  0.32011658    -0.02800
C363        C  0.27570779  0.14099289  0.30248329    -0.12900
C364        C  0.25644566  0.13985630  0.32136441    -0.12900
C365        C  0.24750963  0.11790263  0.33042759     0.10000
C366        C  0.22834008  0.11648986  0.34971162    -0.11000
C367        C  0.22019972  0.09447058  0.35843125    -0.04900
C368        C  0.22990844  0.07337179  0.34836645    -0.11000
H369        H  0.28638084  0.03803852  0.29158092     0.07200
H370        H  0.25283299  0.03612835  0.32433620     0.07200
H371        H  0.28222546  0.15826732  0.29620798     0.07400
H372        H  0.24873733  0.15630922  0.32901319     0.07400
H373        H  0.33110671  0.10061656  0.24843748     0.03800
H374        H  0.20488268  0.09373148  0.37285643     0.03800
C375        C  0.22514151  0.43203239  0.04502408    -0.11000
C376        C  0.21649513  0.44120839  0.02231579    -0.04900
C377        C  0.22718195  0.43395703  0.99943930    -0.11000
C378        C  0.24751867  0.41648017  0.99900699     0.10000
C379        C  0.25699469  0.40713914  0.02209914    -0.02800
C380        C  0.24539416  0.41458664  0.04521578     0.09800
C381        C  0.25443193  0.40452717  0.06767612    -0.12800
C382        C  0.27495001  0.38771983  0.06762040    -0.12800
C383        C  0.28740746  0.38085415  0.04516677     0.09800
C384        C  0.27821480  0.39043635  0.02211270    -0.02800
C385        C  0.25871367  0.40818788  0.97643866    -0.12900
C386        C  0.27928948  0.39135033  0.97645191    -0.12900
C387        C  0.28965587  0.38268242  0.99904166     0.10000
C388        C  0.31145122  0.36668783  0.99951626    -0.11000
C389        C  0.32192206  0.35973419  0.02244357    -0.04900
C390        C  0.30913428  0.36486734  0.04493663    -0.11000
H391        H  0.24576874  0.40973588  0.08546085     0.07200
H392        H  0.28155832  0.38058159  0.08533768     0.07200
H393        H  0.25170169  0.41481481  0.95864002     0.07400
H394        H  0.28759188  0.38560587  0.95869301     0.07400
H395        H  0.20063160  0.45436959  0.02244633     0.03800
H396        H  0.33817384  0.34692941  0.02254863     0.03800
C397        C  0.65426925  0.11502849  0.26509070    -0.11000
C398        C  0.64026198  0.09425675  0.26023907    -0.04900
C399        C  0.64645535  0.07290686  0.27183676    -0.11000
C400        C  0.66725653  0.07232319  0.28981661     0.10000
C401        C  0.68155001  0.09357611  0.29530520    -0.02800
C402        C  0.67521244  0.11497083  0.28265126     0.09800
C403        C  0.68985705  0.13563332  0.28787540    -0.12800
C404        C  0.71063970  0.13539854  0.30517542    -0.12800
C405        C  0.71727019  0.11453627  0.31791073     0.09800
C406        C  0.70255665  0.09339171  0.31308977    -0.02800
C407        C  0.67410704  0.05141417  0.30247090    -0.12900
C408        C  0.69465466  0.05129276  0.32024973    -0.12900
C409        C  0.70913079  0.07202537  0.32574234     0.10000
C410        C  0.73009108  0.07228476  0.34351351    -0.11000
C411        C  0.74410315  0.09319727  0.34791086    -0.04900
C412        C  0.73843095  0.11402897  0.33525210    -0.11000
H413        H  0.68530956  0.15214893  0.27858101     0.07200
H414        H  0.72147148  0.15170585  0.30858939     0.07200
H415        H  0.66343520  0.03507460  0.29879711     0.07400
H416        H  0.69920094  0.03484741  0.32968344     0.07400
H417        H  0.62487934  0.09447175  0.24590787     0.03800
H418        H  0.76054788  0.09310028  0.36117706     0.03800
C419        C  0.96185583  0.75735164  0.29982363    -0.11000
C420        C  0.98598737  0.74795486  0.29159125    -0.04900
C421        C  0.01055934  0.75672495  0.29941919    -0.11000
C422        C  0.01134911  0.77474151  0.31805527     0.10000
C423        C  0.98680203  0.78381848  0.32782808    -0.02800
C424        C  0.96190049  0.77556858  0.31814569     0.09800
C425        C  0.93803697  0.78573278  0.32698356    -0.12800
C426        C  0.93838952  0.80349456  0.34537469    -0.12800
C427        C  0.96258724  0.81137348  0.35576332     0.09800
C428        C  0.98712702  0.80155871  0.34686533    -0.02800
C429        C  0.03558793  0.78388898  0.32719819    -0.12900
C430        C  0.03589929  0.80127743  0.34609117    -0.12900
C431        C  0.01197947  0.81009949  0.35637704     0.10000
C432        C  0.01182438  0.82715790  0.37603832    -0.11000
C433        C  0.98747556  0.83491923  0.38568272    -0.04900
C434        C  0.96317742  0.82870156  0.37501532    -0.11000
H435        H  0.91892762  0.77983754  0.31980843     0.07200
H436        H  0.91954360  0.81071738  0.35185244     0.07200
H437        H  0.05445313  0.77735363  0.31999522     0.07400
H438        H  0.05499545  0.80757157  0.35291179     0.07400
H439        H  0.98563050  0.73438158  0.27704171     0.03800
H440        H  0.98755030  0.84859870  0.40011733     0.03800
C441        C  0.30748081  0.12166495  0.77848369    -0.11000
C442        C  0.32004222  0.10034776  0.78398862    -0.04900
C443        C  0.31130819  0.07878966  0.77404116    -0.11000
C444        C  0.29025356  0.07853054  0.75642343     0.10000
C445        C  0.27762942  0.10024518  0.75008045    -0.02800
C446        C  0.28593041  0.12186270  0.76154105     0.09800
C447        C  0.27238244  0.14295542  0.75596708    -0.12800
C448        C  0.25084510  0.14291522  0.73949937    -0.12800
C449        C  0.24248745  0.12184307  0.72782510     0.09800
C450        C  0.25610494  0.10027907  0.73288629    -0.02800
C451        C  0.28157200  0.05738545  0.74497486    -0.12900
C452        C  0.26101994  0.05755029  0.72723250    -0.12900
C453        C  0.24798517  0.07876147  0.72100430     0.10000
C454        C  0.22695566  0.07940352  0.70329347    -0.11000
C455        C  0.21361687  0.10065439  0.69915445    -0.04900
C456        C  0.22062799  0.12155767  0.71133370    -0.11000
H457        H  0.27834342  0.15963393  0.76438301     0.07200
H458        H  0.24083706  0.15954999  0.73583662     0.07200
H459        H  0.29098515  0.04064401  0.74938598     0.07400
H460        H  0.25519460  0.04094454  0.71857736     0.07400
H461        H  0.33564869  0.10032911  0.79810361     0.03800
H462        H  0.19690612  0.10090208  0.68618811     0.03800
C463        C  0.99472276  0.43501085  0.75507473    -0.11000
C464        C  0.97030301  0.44420002  0.76272896    -0.04900
C465        C  0.94600931  0.43550434  0.75416431    -0.11000
C466        C  0.94583338  0.41708328  0.73597566     0.10000
C467        C  0.97070730  0.40790680  0.72701587    -0.02800
C468        C  0.99531463  0.41651988  0.73703732     0.09800
C469        C  0.01947003  0.40648884  0.72873720    -0.12800
C470        C  0.01971270  0.38862384  0.71043279    -0.12800
C471        C  0.99582923  0.38042086  0.69967799     0.09800
C472        C  0.97098844  0.38994684  0.70821336    -0.02800
C473        C  0.92189868  0.40767898  0.72645912    -0.12900
C474        C  0.92219147  0.38995295  0.70795388    -0.12900
C475        C  0.94642909  0.38113749  0.69835233     0.10000
C476        C  0.94713970  0.36383220  0.67901736    -0.11000
C477        C  0.97170230  0.35606602  0.66988333    -0.04900
C478        C  0.99582494  0.36306194  0.68042420    -0.11000
H479        H  0.03834722  0.41260190  0.73624024     0.07200
H480        H  0.03877605  0.38154163  0.70436027     0.07200
H481        H  0.90281099  0.41423130  0.73310259     0.07400
H482        H  0.90330872  0.38341995  0.70086312     0.07400
H483        H  0.97017686  0.45804463  0.77699710     0.03800
H484        H  0.97197788  0.34231714  0.65552239     0.03800
C485        C  0.23297997  0.76478818  0.99845093    -0.11000
C486        C  0.22475323  0.75589399  0.02141346    -0.04900
C487        C  0.23566314  0.76347327  0.04403068    -0.11000
C488        C  0.25568988  0.78127219  0.04391540     0.10000
C489        C  0.26463519  0.79049729  0.02053406    -0.02800
C490        C  0.25306353  0.78236259  0.99768024     0.09800
C491        C  0.26184467  0.79197316  0.97489602    -0.12800
C492        C  0.28160994  0.80944890  0.97438529    -0.12800
C493        C  0.29348203  0.81757582  0.99660619     0.09800
C494        C  0.28501970  0.80801573  0.01997424    -0.02800
C495        C  0.26698311  0.79008784  0.06618501    -0.12900
C496        C  0.28684609  0.80759579  0.06563732    -0.12900
C497        C  0.29630666  0.81657096  0.04279501     0.10000
C498        C  0.31690765  0.83377701  0.04177540    -0.11000
C499        C  0.32599150  0.84153317  0.01863474    -0.04900
C500        C  0.31382134  0.83492837  0.99633032    -0.11000
H501        H  0.25343259  0.78600082  0.95729984     0.07200
H502        H  0.28788803  0.81634877  0.95643780     0.07200
H503        H  0.26050710  0.78343261  0.08417049     0.07400
H504        H  0.29511006  0.81384035  0.08319488     0.07400
H505        H  0.20877565  0.74284971  0.02170648     0.03800
H506        H  0.34119178  0.85530752  0.01814295     0.03800
C507        C  0.71773395  0.43947841  0.05035984    -0.11000
C508        C  0.72637610  0.44876228  0.02765902    -0.04900
C509        C  0.71800957  0.43976061  0.00465780    -0.11000
C510        C  0.69905407  0.42109925  0.00401368     0.10000
C511        C  0.68903935  0.41190200  0.02699314    -0.02800
C512        C  0.69892790  0.42067957  0.05030678     0.09800
C513        C  0.68969274  0.41050390  0.07266893    -0.12800
C514        C  0.67058250  0.39238266  0.07233393    -0.12800
C515        C  0.65987211  0.38405756  0.04964694     0.09800
C516        C  0.66939906  0.39366802  0.02666230    -0.02800
C517        C  0.68977913  0.41147913  0.98128627    -0.12900
C518        C  0.67055819  0.39342494  0.98096498    -0.12900
C519        C  0.65985078  0.38454868  0.00335156     0.10000
C520        C  0.63962972  0.36693690  0.00341493    -0.11000
C521        C  0.62910963  0.35944307  0.02612942    -0.04900
C522        C  0.63968525  0.36648397  0.04902716    -0.11000
H523        H  0.69703482  0.41670393  0.09059773     0.07200
H524        H  0.66377434  0.38522343  0.08999448     0.07200
H525        H  0.69715929  0.41808660  0.96358617     0.07400
H526        H  0.66371083  0.38671781  0.96306037     0.07400
H527        H  0.74144455  0.46263060  0.02789125     0.03800
H528        H  0.61406624  0.34552754  0.02595059     0.03800
C529        C  0.98902302  0.76376325  0.75602952    -0.11000
C530        C  0.96478061  0.75367059  0.76276618    -0.04900
C531        C  0.94039062  0.76246945  0.75456757    -0.11000
C532        C  0.94002798  0.78129148  0.73717508     0.10000
C533        C  0.96477551  0.79076055  0.72850155    -0.02800
C534        C  0.98943007  0.78239135  0.73846026     0.09800
C535        C  0.01348754  0.79278225  0.73057260    -0.12800
C536        C  0.01356057  0.81071672  0.71260122    -0.12800
C537        C  0.98958010  0.81876726  0.70201063     0.09800
C538        C  0.96485784  0.80895976  0.71027667    -0.02800
C539        C  0.91596783  0.79078437  0.72816376    -0.12900
C540        C  0.91605489  0.80878440  0.71023537    -0.12900
C541        C  0.94020484  0.81776661  0.70077845     0.10000
C542        C  0.94071757  0.83529045  0.68196844    -0.11000
C543        C  0.96516819  0.84334796  0.67297495    -0.04900
C544        C  0.98934622  0.83635665  0.68328063    -0.11000
H545        H  0.03241781  0.78680617  0.73801941     0.07200
H546        H  0.03254698  0.81802758  0.70672250     0.07200
H547        H  0.89694931  0.78404984  0.73468529     0.07400
H548        H  0.89709554  0.81538209  0.70346453     0.07400
H549        H  0.96481971  0.73962383  0.77663351     0.03800
H550        H  0.96530282  0.85727472  0.65897549     0.03800
C551        C  0.64632017  0.07881579  0.77924010    -0.11000
C552        C  0.63594504  0.10040291  0.78728646    -0.04900
C553        C  0.64501004  0.12199040  0.77801763    -0.11000
C554        C  0.66517500  0.12222191  0.75940583     0.10000
C555        C  0.67566109  0.10028736  0.75045477    -0.02800
C556        C  0.66620108  0.07844920  0.76041758     0.09800
C557        C  0.67674631  0.05702260  0.75126312    -0.12800
C558        C  0.69653476  0.05690498  0.73280154    -0.12800
C559        C  0.70652231  0.07822087  0.72305999     0.09800
C560        C  0.69593780  0.10018212  0.73182710    -0.02800
C561        C  0.67497669  0.14353346  0.74943206    -0.12900
C562        C  0.69477009  0.14342307  0.73089774    -0.12900
C563        C  0.70555603  0.12200841  0.72192341     0.10000
C564        C  0.72563620  0.12153025  0.70320616    -0.11000
C565        C  0.73615765  0.09985126  0.69550266    -0.04900
C566        C  0.72681330  0.07837515  0.70467992    -0.11000
H567        H  0.66963151  0.04019818  0.75828722     0.07200
H568        H  0.70407190  0.03998353  0.72623442     0.07200
H569        H  0.66722594  0.16043676  0.75582483     0.07400
H570        H  0.70167867  0.16023468  0.72367023     0.07400
H571        H  0.62123192  0.10043505  0.80227639     0.03800
H572        H  0.75202596  0.09966158  0.68158233     0.03800
C573        C  0.72747113  0.77514732  0.05380911    -0.11000
C574        C  0.73478851  0.76411122  0.03150939    -0.04900
C575        C  0.72122888  0.76789977  0.00916228    -0.11000
C576        C  0.69974306  0.78426542  0.00868062     0.10000
C577        C  0.69140981  0.79525414  0.03150641    -0.02800
C578        C  0.70526510  0.79059900  0.05423914     0.09800
C579        C  0.69672467  0.80162574  0.07650200    -0.12800
C580        C  0.67468779  0.81684057  0.07664735    -0.12800
C581        C  0.66065805  0.82160513  0.05450223     0.09800
C582        C  0.66931052  0.81103481  0.03159833    -0.02800
C583        C  0.68649565  0.79004619  0.98633983    -0.12900
C584        C  0.66559960  0.80657529  0.98626208    -0.12900
C585        C  0.65656160  0.81701514  0.00865878     0.10000
C586        C  0.63488949  0.83313742  0.00904156    -0.11000
C587        C  0.62502366  0.84110004  0.03193489    -0.04900
C588        C  0.63810148  0.83665840  0.05438003    -0.11000
H589        H  0.70697999  0.79840346  0.09398467     0.07200
H590        H  0.66855777  0.82477981  0.09424562     0.07200
H591        H  0.69247460  0.78201178  0.96874830     0.07400
H592        H  0.65601056  0.81069748  0.96865814     0.07400
H593        H  0.75176541  0.75208718  0.03156444     0.03800
H594        H  0.60864854  0.85377886  0.03197744     0.03800
C595        C  0.05081210  0.27893083  0.43574508    -0.11000
C596        C  0.03370598  0.28161731  0.41513299     0.06200
C597        C  0.01599309  0.26296124  0.40923481    -0.09800
C598        C  0.01674270  0.24160434  0.42254520    -0.11400
C599        C  0.03510101  0.23854328  0.44205921    -0.01200
C600        C  0.05158062  0.25760734  0.44892920    -0.10300
C601        C  0.03448734  0.30365566  0.39976957     0.06200
H602        H  0.00215566  0.26457579  0.39379492     0.08100
H603        H  0.00453013  0.22687412  0.41630744     0.11600
H604        H  0.06659276  0.25532543  0.46329995     0.22600
H605        H  0.06479542  0.29277826  0.44077970     0.08100
C606        C  0.03750165  0.32602312  0.41120119    -0.11000
C607        C  0.03338662  0.34678874  0.39749254    -0.10300
C608        C  0.02547608  0.34556135  0.37228775    -0.01200
C609        C  0.02670734  0.32349060  0.36000661    -0.11400
C610        C  0.03079583  0.30268976  0.37367377    -0.09800
H611        H  0.04056718  0.32752470  0.43119585     0.08100
H612        H  0.03213992  0.36349065  0.40752912     0.11800
H613        H  0.02041248  0.32197311  0.34067048     0.11500
H614        H  0.02934645  0.28579152  0.36407054     0.08100
C615        C  0.13268751  0.18460524  0.39400153    -0.11000
C616        C  0.14813950  0.16539497  0.40190337     0.06200
C617        C  0.14011396  0.15255283  0.42315054    -0.09800
C618        C  0.11682804  0.15879135  0.43614581    -0.11400
C619        C  0.10146585  0.17814251  0.42822942    -0.01200
C620        C  0.10971960  0.19100250  0.40709655    -0.10300
C621        C  0.17187169  0.15809461  0.38731079     0.06200
H622        H  0.15155252  0.13739852  0.42936530     0.08100
H623        H  0.11093562  0.14860990  0.45236718     0.11600
H624        H  0.09820220  0.20591355  0.40038767     0.11800
H625        H  0.13844907  0.19474267  0.37770652     0.08100
C626        C  0.17027741  0.15564216  0.36115059    -0.11000
C627        C  0.19111760  0.14500151  0.34780171    -0.10300
C628        C  0.21378259  0.13680252  0.36044321    -0.01200
C629        C  0.21647778  0.14138059  0.38615973    -0.11400
C630        C  0.19559826  0.15185328  0.39954076    -0.09800
H631        H  0.15210682  0.16021388  0.35132004     0.08100
H632        H  0.18835628  0.14093157  0.32813211     0.11800
H633        H  0.23356445  0.13461008  0.39627772     0.11500
H634        H  0.19739443  0.15389669  0.41963641     0.08100
C635        C  0.13436583  0.00576183  0.39332474    -0.11000
C636        C  0.15099977  0.02454844  0.40055637     0.06200
C637        C  0.14368349  0.03840359  0.42152791    -0.09800
C638        C  0.12023555  0.03349953  0.43499995    -0.11400
C639        C  0.10390042  0.01438438  0.42800623    -0.01200
C640        C  0.11125425  0.00063750  0.40696930    -0.10300
C641        C  0.17514467  0.03053701  0.38557995     0.06200
H642        H  0.15591210  0.05329523  0.42726110     0.08100
H643        H  0.11516270  0.04434308  0.45110835     0.11600
H644        H  0.09902551  0.98584795  0.40093640     0.11800
H645        H  0.13939654  0.99486500  0.37723913     0.08100
C646        C  0.19916533  0.03666179  0.39750897    -0.11000
C647        C  0.22001507  0.04697088  0.38393448    -0.10300
C648        C  0.21699893  0.05176425  0.35830065    -0.01200
C649        C  0.19435670  0.04305102  0.34583990    -0.11400
C650        C  0.17359155  0.03244337  0.35936688    -0.09800
H651        H  0.20111778  0.03493731  0.41760143     0.08100
H652        H  0.23708461  0.05392661  0.39401500     0.11800
H653        H  0.19130261  0.04703261  0.32624026     0.11500
H654        H  0.15535432  0.02779202  0.34964440     0.08100
C655        C  0.04524574  0.86268856  0.42366834    -0.11000
C656        C  0.04423111  0.88461028  0.41127646     0.06200
C657        C  0.04278474  0.88441791  0.38495268    -0.09800
C658        C  0.03849644  0.86321315  0.37176492    -0.11400
C659        C  0.03470440  0.84184751  0.38466498    -0.01200
C660        C  0.04076044  0.84146526  0.41042230    -0.10300
C661        C  0.04227152  0.90751703  0.42553743     0.06200
H662        H  0.04297701  0.90089420  0.37466492     0.08100
H663        H  0.03380375  0.86417696  0.35200626     0.11600
H664        H  0.03772833  0.82533624  0.42094966     0.11800
H665        H  0.04678924  0.86206574  0.44386189     0.08100
C666        C  0.02479633  0.92550588  0.41743458    -0.11000
C667        C  0.02442627  0.94779721  0.42918222    -0.10300
C668        C  0.04147794  0.95270675  0.44934771    -0.01200
C669        C  0.05769021  0.93433526  0.45852275    -0.11400
C670        C  0.05784892  0.91188970  0.44696773    -0.09800
H671        H  0.01199510  0.92261092  0.40139364     0.08100
H672        H  0.01241706  0.96180868  0.42118143     0.11800
H673        H  0.07171362  0.93789416  0.47349691     0.11500
H674        H  0.07141175  0.89847921  0.45383518     0.08100
C675        C  0.81326392  0.04014923  0.42173317    -0.11000
C676        C  0.80303118  0.02424074  0.40371139     0.06200
C677        C  0.81630301  0.00270892  0.39963999    -0.09800
C678        C  0.83929384  0.99717655  0.41313744    -0.11400
C679        C  0.84990317  0.01315096  0.43091924    -0.01200
C680        C  0.83658639  0.03473232  0.43509875    -0.10300
C681        C  0.77969937  0.03079508  0.38801951     0.06200
H682        H  0.80891033  0.99014128  0.38590905     0.08100
H683        H  0.84900503  0.98040453  0.40924852     0.11600
H684        H  0.84420291  0.04741676  0.44859173     0.11800
H685        H  0.80363389  0.05708242  0.42496593     0.08100
C686        C  0.75713167  0.04159735  0.39876995    -0.11000
C687        C  0.73753598  0.05175544  0.38357522    -0.10300
C688        C  0.74038076  0.05161622  0.35739252    -0.01200
C689        C  0.76145852  0.03868078  0.34663622    -0.11400
C690        C  0.78092624  0.02827822  0.36182183    -0.09800
H691        H  0.75549469  0.04346795  0.41890007     0.08100
H692        H  0.72185466  0.06217495  0.39228318     0.11800
H693        H  0.76457266  0.03900848  0.32656837     0.11500
H694        H  0.79814251  0.02011175  0.35300631     0.08100
C695        C  0.93249302  0.88728868  0.38227881    -0.11000
C696        C  0.92628540  0.88685883  0.40795566     0.06200
C697        C  0.92437079  0.86476029  0.41986636    -0.09800
C698        C  0.93173691  0.84390865  0.40718585    -0.11400
C699        C  0.94098334  0.84474923  0.38232765    -0.01200
C700        C  0.93943296  0.86640213  0.36952949    -0.10300
C701        C  0.92363473  0.90939400  0.42253220     0.06200
H702        H  0.91949000  0.86381516  0.43958739     0.08100
H703        H  0.93347131  0.82763455  0.41771343     0.11600
H704        H  0.94707456  0.86770274  0.35059874     0.11800
H705        H  0.93353115  0.90398299  0.37242481     0.08100
C706        C  0.94198377  0.92806741  0.41913839    -0.11000
C707        C  0.93857221  0.94983056  0.43161252    -0.10300
C708        C  0.91658057  0.95342896  0.44748648    -0.01200
C709        C  0.89904458  0.93441557  0.45185202    -0.11400
C710        C  0.90269914  0.91255544  0.43975912    -0.09800
H711        H  0.95861125  0.92602413  0.40631401     0.08100
H712        H  0.95193193  0.96437187  0.42738482     0.11800
H713        H  0.88154648  0.93695872  0.46352608     0.11500
H714        H  0.88829923  0.89854996  0.44283587     0.08100
C715        C  0.93820216  0.26843788  0.40910887    -0.11000
C716        C  0.92026397  0.28611805  0.41723781     0.06200
C717        C  0.90372279  0.28123763  0.43787172    -0.09800
C718        C  0.90375496  0.25860513  0.44882078    -0.11400
C719        C  0.92095040  0.24064722  0.43996985    -0.01200
C720        C  0.93857799  0.24603286  0.42035927    -0.10300
C721        C  0.91898227  0.30927083  0.40376021     0.06200
H722        H  0.88971262  0.29446135  0.44457373     0.08100
H723        H  0.88911826  0.25462942  0.46315015     0.11600
H724        H  0.95120521  0.23231221  0.41243095     0.11800
H725        H  0.95143207  0.27174942  0.39345756     0.08100
C726        C  0.92156782  0.33089529  0.41670950    -0.11000
C727        C  0.92739414  0.35183730  0.40363322    -0.10300
C728        C  0.93113934  0.35141735  0.37743795    -0.01200
C729        C  0.92390845  0.33069669  0.36440929    -0.11400
C730        C  0.91834706  0.30974092  0.37743254    -0.09800
H731        H  0.92187103  0.33118572  0.43697619     0.08100
H732        H  0.93323387  0.36738591  0.41427515     0.11800
H733        H  0.92681879  0.32966702  0.34433378     0.11500
H734        H  0.91568916  0.29345302  0.36690990     0.08100
C735        C  0.83947864  0.14558008  0.39231254    -0.11000
C736        C  0.82099593  0.16245871  0.38370884     0.06200
C737        C  0.82345526  0.18605929  0.39148612    -0.09800
C738        C  0.84442135  0.19286844  0.40710776    -0.11400
C739        C  0.86310925  0.17612925  0.41569872    -0.01200
C740        C  0.86026315  0.15231667  0.40838101    -0.10300
C741        C  0.79876849  0.15525956  0.36719446     0.06200
H742        H  0.80934915  0.19928635  0.38516159     0.08100
H743        H  0.84595332  0.21134441  0.41250602     0.11600
H744        H  0.87434708  0.13905023  0.41464638     0.11800
H745        H  0.83764509  0.12715888  0.38675903     0.08100
C746        C  0.80396077  0.14249994  0.34512539    -0.11000
C747        C  0.78300562  0.13211754  0.33180829    -0.10300
C748        C  0.75667372  0.13390411  0.34071389    -0.01200
C749        C  0.75121971  0.14855928  0.36139278    -0.11400
C750        C  0.77217429  0.15936147  0.37446873    -0.09800
H751        H  0.82432798  0.13941127  0.33905085     0.08100
H752        H  0.78762895  0.12045081  0.31621486     0.11800
H753        H  0.73114279  0.14962413  0.36891205     0.11500
H754        H  0.76778675  0.16922691  0.39143497     0.08100
C755        C  0.03558850  0.33068446  0.63347681    -0.11000
C756        C  0.03401567  0.30802897  0.64412667     0.06200
C757        C  0.02865376  0.30616679  0.66986169    -0.09800
C758        C  0.02148249  0.32619463  0.68389725    -0.11400
C759        C  0.01886572  0.34835193  0.67229457    -0.01200
C760        C  0.02794359  0.35072405  0.64746787    -0.10300
C761        C  0.03473315  0.28627810  0.62827365     0.06200
H762        H  0.02792574  0.28892382  0.67864652     0.08100
H763        H  0.01413796  0.32372579  0.70279279     0.11600
H764        H  0.02561663  0.36747752  0.63792186     0.11800
H765        H  0.04002660  0.33262565  0.61374856     0.08100
C766        C  0.01406994  0.26943877  0.63016401    -0.11000
C767        C  0.01590790  0.24752021  0.61781542    -0.10300
C768        C  0.03862363  0.24196622  0.60358757    -0.01200
C769        C  0.05831884  0.25947800  0.60017074    -0.11400
C770        C  0.05625107  0.28156759  0.61215475    -0.09800
H771        H  0.99703145  0.27286788  0.64215827     0.08100
H772        H  0.00081719  0.23417408  0.62128007     0.11800
H773        H  0.07631774  0.25537064  0.58971880     0.11500
H774        H  0.07230821  0.29428551  0.61020665     0.08100
C775        C  0.12129997  0.15167082  0.65444690    -0.11000
C776        C  0.14059187  0.16888259  0.66058754     0.06200
C777        C  0.13936186  0.19114613  0.64923989    -0.09800
C778        C  0.11858775  0.19645723  0.63280835    -0.11400
C779        C  0.09885848  0.17947883  0.62706085    -0.01200
C780        C  0.10069668  0.15686156  0.63767643    -0.10300
C781        C  0.16238127  0.16313201  0.67816590     0.06200
H782        H  0.15413250  0.20458731  0.65352313     0.08100
H783        H  0.11777217  0.21403742  0.62481352     0.11600
H784        H  0.08576190  0.14349089  0.63368358     0.11800
H785        H  0.12222783  0.13416475  0.66261564     0.08100
C786        C  0.15660123  0.15165558  0.70076213    -0.11000
C787        C  0.17707034  0.14133911  0.71460928    -0.10300
C788        C  0.20346617  0.14202051  0.70577306    -0.01200
C789        C  0.20964773  0.15589491  0.68487391    -0.11400
C790        C  0.18917452  0.16655093  0.67117719    -0.09800
H791        H  0.13609679  0.14917936  0.70670396     0.08100
H792        H  0.17192192  0.13031834  0.73044427     0.11800
H793        H  0.22982575  0.15615353  0.67752065     0.11500
H794        H  0.19407839  0.17544370  0.65385799     0.08100
C795        C  0.91240114  0.33108483  0.62980709    -0.11000
C796        C  0.91305163  0.30859484  0.64097759     0.06200
C797        C  0.91530869  0.30729017  0.66715884    -0.09800
C798        C  0.92035626  0.32769416  0.68141772    -0.11400
C799        C  0.92430192  0.34961920  0.66964683    -0.01200
C800        C  0.91794053  0.35146798  0.64406446    -0.10300
C801        C  0.91352638  0.28654815  0.62544681     0.06200
H802        H  0.91505121  0.29025688  0.67639628     0.08100
H803        H  0.92539487  0.32566815  0.70100403     0.11600
H804        H  0.92118908  0.36805656  0.63442267     0.11800
H805        H  0.91025712  0.33269848  0.60972424     0.08100
C806        C  0.93208591  0.26840337  0.63050887    -0.11000
C807        C  0.93100428  0.24668463  0.61761192    -0.10300
C808        C  0.91117507  0.24263423  0.59957629    -0.01200
C809        C  0.89380976  0.26130623  0.59337578    -0.11400
C810        C  0.89515329  0.28312574  0.60595882    -0.09800
H811        H  0.94679338  0.27071349  0.64515210     0.08100
H812        H  0.94410353  0.23241121  0.62327545     0.11800
H813        H  0.87785451  0.25837792  0.58003901     0.11500
H814        H  0.88070142  0.29675805  0.60156347     0.08100
C815        C  0.81105087  0.19332336  0.64702363    -0.11000
C816        C  0.79778903  0.17181013  0.64294545     0.06200
C817        C  0.80761333  0.15623292  0.62435930    -0.09800
C818        C  0.83081023  0.16173089  0.61075345    -0.11400
C819        C  0.84439806  0.18309468  0.61521333    -0.01200
C820        C  0.83386957  0.19898816  0.63321060    -0.10300
C821        C  0.77498153  0.16478144  0.65917395     0.06200
H822        H  0.79786799  0.13938754  0.62098217     0.08100
H823        H  0.83822662  0.14920511  0.59697201     0.11600
H824        H  0.84367640  0.21568234  0.63720858     0.11800
H825        H  0.80388790  0.20568069  0.66110200     0.08100
C826        C  0.77715050  0.16604993  0.68543225    -0.11000
C827        C  0.75834329  0.15470835  0.70074953    -0.10300
C828        C  0.73684863  0.14235800  0.69003425    -0.01200
C829        C  0.73307524  0.14356441  0.66398681    -0.11400
C830        C  0.75209575  0.15442409  0.64868334    -0.09800
H831        H  0.79461396  0.17394608  0.69402167     0.08100
H832        H  0.76208667  0.15349804  0.72066274     0.11800
H833        H  0.71700240  0.13368744  0.65526198     0.11500
H834        H  0.74975541  0.15345828  0.62855398     0.08100
C835        C  0.92869279  0.93092249  0.63818097    -0.11000
C836        C  0.91108675  0.91285729  0.63037377     0.06200
C837        C  0.89652401  0.91609016  0.60820061    -0.09800
C838        C  0.89786515  0.93760005  0.59534332    -0.11400
C839        C  0.91401033  0.95618372  0.60417345    -0.01200
C840        C  0.93012571  0.95237186  0.62519843    -0.10300
C841        C  0.90831756  0.89073645  0.64527518     0.06200
H842        H  0.88285848  0.90256189  0.60163287     0.08100
H843        H  0.88450899  0.94048530  0.57971894     0.11600
H844        H  0.94200075  0.96671405  0.63287950     0.11800
H845        H  0.94073661  0.92877057  0.65482981     0.08100
C846        C  0.90769192  0.86845870  0.63337924    -0.11000
C847        C  0.91202514  0.84778739  0.64718465    -0.10300
C848        C  0.91765808  0.84920832  0.67293233    -0.01200
C849        C  0.91318299  0.87085522  0.68535212    -0.11400
C850        C  0.90897331  0.89155203  0.67159597    -0.09800
H851        H  0.90678458  0.86713753  0.61317683     0.08100
H852        H  0.91552925  0.83135163  0.63712710     0.11800
H853        H  0.91743616  0.87247091  0.70516740     0.11500
H854        H  0.90843204  0.90839018  0.68141251     0.08100
C855        C  0.81868001  0.00873849  0.65583717    -0.11000
C856        C  0.80307478  0.02828290  0.64922042     0.06200
C857        C  0.81077594  0.04209097  0.62852506    -0.09800
C858        C  0.83401676  0.03660417  0.61496681    -0.11400
C859        C  0.84961645  0.01699090  0.62168131    -0.01200
C860        C  0.84154048  0.00307325  0.64216312    -0.10300
C861        C  0.77992949  0.03522533  0.66493775     0.06200
H862        H  0.79918761  0.05748429  0.62327091     0.08100
H863        H  0.83967141  0.04754459  0.59923642     0.11600
H864        H  0.85315017  0.98786925  0.64795259     0.11800
H865        H  0.81320100  0.99785816  0.67167576     0.08100
C866        C  0.78283665  0.03746960  0.69102785    -0.11000
C867        C  0.76296459  0.04852452  0.70536101    -0.10300
C868        C  0.73984548  0.05721046  0.69382116    -0.01200
C869        C  0.73564373  0.05246231  0.66828662    -0.11400
C870        C  0.75564481  0.04175019  0.65388694    -0.09800
H871        H  0.80141901  0.03259016  0.69998187     0.08100
H872        H  0.76692446  0.05260627  0.72484164     0.11800
H873        H  0.71820216  0.05952918  0.65895214     0.11500
H874        H  0.75281157  0.03988182  0.63387975     0.08100
C875        C  0.14394398  0.00720752  0.64466633    -0.11000
C876        C  0.15348738  0.03046206  0.64311723     0.06200
C877        C  0.13963548  0.04685216  0.62817703    -0.09800
C878        C  0.11619308  0.04018543  0.61558627    -0.11400
C879        C  0.10636284  0.01691615  0.61748894    -0.01200
C880        C  0.12083459  0.00046254  0.63188848    -0.10300
C881        C  0.17682446  0.03795114  0.65832170     0.06200
H882        H  0.14648419  0.06501391  0.62692021     0.08100
H883        H  0.10557628  0.05331684  0.60474807     0.11600
H884        H  0.11404504  0.98234696  0.63378509     0.11800
H885        H  0.15430822  0.99426630  0.65597251     0.08100
C886        C  0.17700391  0.03424413  0.68433931    -0.11000
C887        C  0.19656522  0.04488433  0.69940484    -0.10300
C888        C  0.21645174  0.05909034  0.68863197    -0.01200
C889        C  0.21792181  0.06051659  0.66236310    -0.11400
C890        C  0.19805409  0.05036808  0.64736531    -0.09800
H891        H  0.16078109  0.02475280  0.69321504     0.08100
H892        H  0.19448125  0.04413102  0.71956835     0.11800
H893        H  0.23264830  0.07189743  0.65367292     0.11500
H894        H  0.19848236  0.05327239  0.62734578     0.08100
C895        C  0.01211057  0.93115776  0.63350797    -0.11000
C896        C  0.03133004  0.91291678  0.63245020     0.06200
C897        C  0.05366055  0.91571953  0.61687957    -0.09800
C898        C  0.05778227  0.93705563  0.60422565    -0.11400
C899        C  0.03935555  0.95580207  0.60636971    -0.01200
C900        C  0.01599134  0.95237303  0.62041766    -0.10300
C901        C  0.02828989  0.89136260  0.64807250     0.06200
H902        H  0.06866067  0.90192679  0.61562044     0.08100
H903        H  0.07616891  0.93944379  0.59381550     0.11600
H904        H  0.00177361  0.96668836  0.62279447     0.11800
H905        H  0.99445193  0.92923697  0.64506290     0.08100
C906        C  0.02178256  0.89347986  0.67357157    -0.11000
C907        C  0.01422440  0.87354345  0.68731397    -0.10300
C908        C  0.01220419  0.85126826  0.67559097    -0.01200
C909        C  0.02185887  0.84870472  0.65098988    -0.11400
C910        C  0.02998595  0.86861091  0.63734989    -0.09800
H911        H  0.02089923  0.91077629  0.68243191     0.08100
H912        H  0.00633195  0.87609933  0.70603500     0.11800
H913        H  0.01986149  0.83186717  0.64133663     0.11500
H914        H  0.03521439  0.86647530  0.61778881     0.08100
C915        C  0.31162404  0.16366603  0.22117544    -0.11000
C916        C  0.33960162  0.16415540  0.21845730     0.06200
C917        C  0.35551495  0.15682637  0.23859138    -0.09800
C918        C  0.34381032  0.14648153  0.25961509    -0.11400
C919        C  0.31606153  0.14270130  0.26054578    -0.01200
C920        C  0.29992855  0.15293453  0.24208450    -0.10300
C921        C  0.35202976  0.16995520  0.19393805     0.06200
H922        H  0.37709126  0.15758627  0.23731921     0.08100
H923        H  0.35665544  0.13856066  0.27356280     0.11600
H924        H  0.27854204  0.15002547  0.24225309     0.11800
H925        H  0.29881195  0.16943401  0.20608406     0.08100
C926        C  0.34252185  0.18896605  0.17974756    -0.11000
C927        C  0.35391668  0.19413410  0.15654602    -0.10300
C928        C  0.37500470  0.18032081  0.14678216    -0.01200
C929        C  0.38405967  0.16084499  0.16060289    -0.11400
C930        C  0.37278023  0.15579920  0.18402944    -0.09800
H931        H  0.32651335  0.20008765  0.18677031     0.08100
H932        H  0.34621131  0.20913640  0.14626909     0.11800
H933        H  0.40017230  0.14984575  0.15357306     0.11500
H934        H  0.38009683  0.14064523  0.19430482     0.08100
C935        C  0.35580266  0.32966808  0.08274691    -0.11000
C936        C  0.34478639  0.30711190  0.07830355     0.06200
C937        C  0.31812587  0.30554091  0.07031318    -0.09800
C938        C  0.30379493  0.32599051  0.06427912    -0.11400
C939        C  0.31614662  0.34833283  0.06528842    -0.01200
C940        C  0.34163533  0.35013796  0.07612250    -0.10300
C941        C  0.36141421  0.28534017  0.08031990     0.06200
H942        H  0.30891357  0.28840162  0.06727520     0.08100
H943        H  0.28444813  0.32404789  0.05543482     0.11600
H944        H  0.35183176  0.36706197  0.07652358     0.11800
H945        H  0.37621699  0.33140887  0.08916174     0.08100
C946        C  0.36084996  0.26789468  0.06133017    -0.11000
C947        C  0.37475903  0.24647489  0.06405563    -0.10300
C948        C  0.38911927  0.24202586  0.08602455    -0.01200
C949        C  0.39087998  0.25998898  0.10434037    -0.11400
C950        C  0.37741736  0.28151222  0.10141388    -0.09800
H951        H  0.34887069  0.27053457  0.04475877     0.08100
H952        H  0.37253880  0.23273685  0.04997009     0.11800
H953        H  0.40139472  0.25675536  0.12169826     0.11500
H954        H  0.37826422  0.29459306  0.11630403     0.08100
C955        C  0.35289154  0.00621886  0.18291593    -0.11000
C956        C  0.35987606  0.02722467  0.19533997     0.06200
C957        C  0.37871389  0.04246429  0.18431173    -0.09800
C958        C  0.39001241  0.03696296  0.16099940    -0.11400
C959        C  0.38298001  0.01592142  0.14850055    -0.01200
C960        C  0.36445484  0.00053462  0.15985572    -0.10300
C961        C  0.34607377  0.03428185  0.21872895     0.06200
H962        H  0.38409083  0.05898780  0.19340652     0.08100
H963        H  0.40421281  0.04914158  0.15278794     0.11600
H964        H  0.35847659  0.98420686  0.15071479     0.11800
H965        H  0.33836680  0.99426578  0.19101560     0.08100
C966        C  0.31800841  0.03478040  0.21967046    -0.11000
C967        C  0.30488131  0.04639287  0.23934707    -0.10300
C968        C  0.31967765  0.05732880  0.25842975    -0.01200
C969        C  0.34755153  0.05447929  0.25889368    -0.11400
C970        C  0.36068605  0.04320008  0.23908071    -0.09800
H971        H  0.30633814  0.02808015  0.20411817     0.08100
H972        H  0.28346091  0.04893007  0.23833032     0.11800
H973        H  0.35930847  0.06320578  0.27324161     0.11500
H974        H  0.38231674  0.04277630  0.23886346     0.08100
C975        C  0.36976479  0.92969627  0.05886002    -0.11000
C976        C  0.37293675  0.91148351  0.07654489     0.06200
C977        C  0.38999927  0.91521820  0.09695387    -0.09800
C978        C  0.40160498  0.93746982  0.10091817    -0.11400
C979        C  0.39696917  0.95616687  0.08418513    -0.01200
C980        C  0.38191259  0.95183585  0.06253395    -0.10300
C981        C  0.35696908  0.88937388  0.07460721     0.06200
H982        H  0.39287845  0.90143928  0.11071825     0.08100
H983        H  0.41294842  0.94052730  0.11788255     0.11600
H984        H  0.37774324  0.96606391  0.04958395     0.11800
H985        H  0.35698184  0.92706751  0.04274943     0.08100
C986        C  0.32912262  0.89064657  0.07187189    -0.11000
C987        C  0.31423367  0.87024743  0.06657325    -0.10300
C988        C  0.32705814  0.84833725  0.06286751    -0.01200
C989        C  0.35444401  0.84663858  0.06860064    -0.11400
C990        C  0.36929513  0.86701486  0.07447250    -0.09800
H991        H  0.31908976  0.90765326  0.07243094     0.08100
H992        H  0.29335294  0.87223082  0.06170592     0.11800
H993        H  0.36498424  0.83015716  0.06522756     0.11500
H994        H  0.39071773  0.86556430  0.07680718     0.08100
C995        C  0.38088014  0.04433381  0.86154645    -0.11000
C996        C  0.36154008  0.02933488  0.85071689     0.06200
C997        C  0.35405218  0.00870605  0.86329689    -0.09800
C998        C  0.36569981  0.00304295  0.88616833    -0.11400
C999        C  0.38489314  0.01804913  0.89728009    -0.01200
C1000       C  0.39233536  0.03883162  0.88474567    -0.10300
C1001       C  0.34805834  0.03594597  0.82711638     0.06200
H1002       H  0.33916041  0.99693388  0.85539462     0.08100
H1003       H  0.35928179  0.98694265  0.89532134     0.11600
H1004       H  0.40699493  0.05073253  0.89279468     0.11800
H1005       H  0.38664745  0.06059430  0.85231956     0.08100
C1006       C  0.32001291  0.03643982  0.82583702    -0.11000
C1007       C  0.30724797  0.04726388  0.80563216    -0.10300
C1008       C  0.32237129  0.05761776  0.78644533    -0.01200
C1009       C  0.35020891  0.05443319  0.78625344    -0.11400
C1010       C  0.36298936  0.04388851  0.80657149    -0.09800
H1011       H  0.30806119  0.03039174  0.84146537     0.08100
H1012       H  0.28584707  0.05003346  0.80648755     0.11800
H1013       H  0.36224878  0.06266984  0.77185656     0.11500
H1014       H  0.38460900  0.04330977  0.80697837     0.08100
C1015       C  0.36065076  0.93315480  0.98039990    -0.11000
C1016       C  0.36551672  0.91457950  0.96317874     0.06200
C1017       C  0.38602482  0.91746547  0.94547235    -0.09800
C1018       C  0.39993250  0.93892170  0.94386903    -0.11400
C1019       C  0.39406246  0.95786132  0.96019249    -0.01200
C1020       C  0.37480449  0.95456857  0.97892875    -0.10300
C1021       C  0.34918239  0.89241408  0.96372499     0.06200
H1022       H  0.39034384  0.90362909  0.93193928     0.08100
H1023       H  0.41419142  0.94128366  0.92880798     0.11600
H1024       H  0.36931781  0.96911720  0.99121786     0.11800
H1025       H  0.34539246  0.93136385  0.99464807     0.08100
C1026       C  0.36114978  0.87004491  0.96030786    -0.11000
C1027       C  0.34697546  0.84929169  0.96582616    -0.10300
C1028       C  0.32074077  0.85056937  0.97514005    -0.01200
C1029       C  0.30755808  0.87255158  0.97464979    -0.11400
C1030       C  0.32172922  0.89331671  0.96934768    -0.09800
H1031       H  0.38215684  0.86860985  0.95571548     0.08100
H1032       H  0.35773205  0.83264517  0.96641687     0.11800
H1033       H  0.28747269  0.87410835  0.98207720     0.11500
H1034       H  0.31161513  0.91019362  0.97128247     0.08100
C1035       C  0.36376684  0.27098486  0.98522738    -0.11000
C1036       C  0.36665501  0.28829028  0.96649594     0.06200
C1037       C  0.38476983  0.28410458  0.94694709    -0.09800
C1038       C  0.39818382  0.26238986  0.94514522    -0.11400
C1039       C  0.39429079  0.24455028  0.96313385    -0.01200
C1040       C  0.37765380  0.24937389  0.98370623    -0.10300
C1041       C  0.35028128  0.31031933  0.96712129     0.06200
H1042       H  0.38739226  0.29709348  0.93229994     0.08100
H1043       H  0.41043218  0.25892624  0.92878771     0.11600
H1044       H  0.37372889  0.23578806  0.99747047     0.11800
H1045       H  0.35004408  0.27392866  0.00059230     0.08100
C1046       C  0.32255860  0.30907153  0.97098702    -0.11000
C1047       C  0.30777610  0.32962307  0.97599685    -0.10300
C1048       C  0.32065513  0.35165159  0.97838875    -0.01200
C1049       C  0.34765306  0.35327996  0.97121314    -0.11400
C1050       C  0.36235700  0.33274977  0.96555895    -0.09800
H1051       H  0.31263630  0.29203429  0.97171645     0.08100
H1052       H  0.28715184  0.32776439  0.98185983     0.11800
H1053       H  0.35820839  0.36991465  0.97340275     0.11500
H1054       H  0.38364614  0.33422845  0.96229775     0.08100
C1055       C  0.36716102  0.19324625  0.86050186    -0.11000
C1056       C  0.35691201  0.17035657  0.85731451     0.06200
C1057       C  0.36143957  0.15326155  0.87585349    -0.09800
C1058       C  0.37537309  0.15914152  0.89766923    -0.11400
C1059       C  0.38454628  0.18236705  0.90149110    -0.01200
C1060       C  0.38063588  0.19927878  0.88253552    -0.10300
C1061       C  0.34121800  0.16401353  0.83492010     0.06200
H1062       H  0.35391956  0.13538718  0.87350397     0.08100
H1063       H  0.37798649  0.14579997  0.91195039     0.11600
H1064       H  0.38760649  0.21731690  0.88493984     0.11800
H1065       H  0.36400331  0.20659136  0.84631770     0.08100
C1066       C  0.35317464  0.16380817  0.81114390    -0.11000
C1067       C  0.34036192  0.15254096  0.79106814    -0.10300
C1068       C  0.31526971  0.14189790  0.79451802    -0.01200
C1069       C  0.30217489  0.14448774  0.81759295    -0.11400
C1070       C  0.31516876  0.15527668  0.83773832    -0.09800
H1071       H  0.37329281  0.17046480  0.80866964     0.08100
H1072       H  0.35103395  0.15016885  0.77357816     0.11800
H1073       H  0.28313503  0.13587719  0.82076188     0.11500
H1074       H  0.30562238  0.15540454  0.85595191     0.08100
C1075       C  0.59054306  0.33116504  0.08328857    -0.11000
C1076       C  0.60300155  0.30895576  0.08060805     0.06200
C1077       C  0.63067292  0.30827337  0.07617667    -0.09800
C1078       C  0.64487589  0.32911410  0.07137668    -0.11400
C1079       C  0.63150407  0.35096075  0.06998302    -0.01200
C1080       C  0.60470206  0.35202884  0.07796059    -0.10300
C1081       C  0.58720202  0.28656076  0.08048296     0.06200
H1082       H  0.64098232  0.29144251  0.07472395     0.08100
H1083       H  0.66534396  0.32766123  0.06491376     0.11600
H1084       H  0.59376795  0.36853840  0.07662879     0.11800
H1085       H  0.56932675  0.33227494  0.08710005     0.08100
C1086       C  0.59184515  0.26912490  0.06196492    -0.11000
C1087       C  0.57945013  0.24688672  0.06332689    -0.10300
C1088       C  0.56230586  0.24166567  0.08331217    -0.01200
C1089       C  0.55622337  0.25958522  0.10080614    -0.11400
C1090       C  0.56827889  0.28193292  0.09924338    -0.09800
H1091       H  0.60592206  0.27239854  0.04696938     0.08100
H1092       H  0.58493110  0.23320695  0.04996388     0.11800
H1093       H  0.54349077  0.25573286  0.11668884     0.11500
H1094       H  0.56415247  0.29502392  0.11363749     0.08100
C1095       C  0.65047072  0.15093486  0.20707301    -0.11000
C1096       C  0.62347136  0.15769935  0.20797336     0.06200
C1097       C  0.60921029  0.15529854  0.23043763    -0.09800
C1098       C  0.62097499  0.14430981  0.25096194    -0.11400
C1099       C  0.64703768  0.13530634  0.24919329    -0.01200
C1100       C  0.66216024  0.13965209  0.22756868    -0.10300
C1101       C  0.60941519  0.16493667  0.18496942     0.06200
H1102       H  0.58846154  0.16065229  0.23158613     0.08100
H1103       H  0.60886373  0.14064874  0.26731520     0.11600
H1104       H  0.68203321  0.13225045  0.22564475     0.11800
H1105       H  0.66179442  0.15259133  0.18987840     0.08100
C1106       C  0.61977874  0.18288069  0.16977912    -0.11000
C1107       C  0.60621998  0.18969231  0.14815489    -0.10300
C1108       C  0.58239105  0.17829119  0.14103284    -0.01200
C1109       C  0.57241295  0.15988479  0.15590105    -0.11400
C1110       C  0.58568967  0.15341783  0.17782401    -0.09800
H1111       H  0.63811357  0.19186437  0.17487666     0.08100
H1112       H  0.61446893  0.20382817  0.13690206     0.11800
H1113       H  0.55409421  0.15085010  0.15085874     0.11500
H1114       H  0.57757980  0.13924454  0.18912043     0.08100
C1115       C  0.59326190  0.26866136  0.98575389    -0.11000
C1116       C  0.58642856  0.28755716  0.96980745     0.06200
C1117       C  0.56468968  0.28448448  0.95346797    -0.09800
C1118       C  0.55168357  0.26250324  0.95165857    -0.11400
C1119       C  0.55959532  0.24329134  0.96658984    -0.01200
C1120       C  0.57995368  0.24681422  0.98420243    -0.10300
C1121       C  0.60224771  0.31010561  0.97020061     0.06200
H1122       H  0.55875307  0.29860917  0.94102667     0.08100
H1123       H  0.53647999  0.26004336  0.93747657     0.11600
H1124       H  0.58694374  0.23214717  0.99542968     0.11800
H1125       H  0.60948864  0.27054478  0.99897887     0.08100
C1126       C  0.63015452  0.30956193  0.97337191    -0.11000
C1127       C  0.64438705  0.33034270  0.97884212    -0.10300
C1128       C  0.63094767  0.35204277  0.98190115    -0.01200
C1129       C  0.60384497  0.35313861  0.97499176    -0.11400
C1130       C  0.58958322  0.33235830  0.96930839    -0.09800
H1131       H  0.64074611  0.29282802  0.97331611     0.08100
H1132       H  0.66512446  0.32881997  0.98438019     0.11800
H1133       H  0.59283493  0.36949704  0.97760638     0.11500
H1134       H  0.56819997  0.33353940  0.96660764     0.08100
C1135       C  0.57881362  0.15421156  0.86909407    -0.11000
C1136       C  0.59480902  0.17067881  0.85627892     0.06200
C1137       C  0.59895761  0.19310758  0.86682014    -0.09800
C1138       C  0.58726076  0.19910510  0.88974845    -0.11400
C1139       C  0.57143175  0.18265291  0.90292398    -0.01200
C1140       C  0.56737635  0.16007343  0.89231848    -0.10300
C1141       C  0.60833436  0.16399328  0.83263514     0.06200
H1142       H  0.61128115  0.20599666  0.85726561     0.08100
H1143       H  0.59093326  0.21666283  0.89725346     0.11600
H1144       H  0.55543968  0.14695860  0.90194195     0.11800
H1145       H  0.57568098  0.13664450  0.86136160     0.08100
C1146       C  0.59345060  0.15641210  0.81188677    -0.11000
C1147       C  0.60632099  0.14635686  0.79114402    -0.10300
C1148       C  0.63417746  0.14303077  0.79122027    -0.01200
C1149       C  0.64920679  0.15277565  0.81089460    -0.11400
C1150       C  0.63635587  0.16330358  0.83143659    -0.09800
H1151       H  0.57182948  0.15701433  0.81236770     0.08100
H1152       H  0.59431022  0.13852094  0.77641939     0.11800
H1153       H  0.67057308  0.14984055  0.81171032     0.11500
H1154       H  0.64817034  0.16909628  0.84729494     0.08100
C1155       C  0.58875852  0.93094238  0.98827661    -0.11000
C1156       C  0.58341462  0.91201670  0.97168887     0.06200
C1157       C  0.56395371  0.91512558  0.95312848    -0.09800
C1158       C  0.55157047  0.93717340  0.95004687    -0.11400
C1159       C  0.55782500  0.95639011  0.96585278    -0.01200
C1160       C  0.57593472  0.95289323  0.98549025    -0.10300
C1161       C  0.59837881  0.88927924  0.97368014     0.06200
H1162       H  0.55937661  0.90088049  0.94016247     0.08100
H1163       H  0.53813064  0.93963287  0.93440426     0.11600
H1164       H  0.58160995  0.96757516  0.99749939     0.11800
H1165       H  0.60339136  0.92891033  0.00301382     0.08100
C1166       C  0.62625332  0.88934504  0.97673869    -0.11000
C1167       C  0.63979529  0.86854946  0.98319214    -0.10300
C1168       C  0.62560569  0.84748610  0.98758657    -0.01200
C1169       C  0.59830096  0.84676032  0.98139218    -0.11400
C1170       C  0.58480575  0.86748889  0.97441249    -0.09800
H1171       H  0.63732074  0.90580204  0.97571548     0.08100
H1172       H  0.66068500  0.86977256  0.98831802     0.11800
H1173       H  0.58674864  0.83095649  0.98520552     0.11500
H1174       H  0.56335713  0.86687434  0.97190088     0.08100
C1175       C  0.63828874  0.04013424  0.83491017    -0.11000
C1176       C  0.61079315  0.03532079  0.83362338     0.06200
C1177       C  0.59703502  0.04006494  0.81134941    -0.09800
C1178       C  0.61006742  0.05120919  0.79142993    -0.11400
C1179       C  0.63696529  0.05802811  0.79359300    -0.01200
C1180       C  0.65124412  0.05153512  0.81508808    -0.10300
C1181       C  0.59610406  0.02784581  0.85634442     0.06200
H1182       H  0.57585518  0.03639004  0.80994405     0.08100
H1183       H  0.59849539  0.05666428  0.77534760     0.11600
H1184       H  0.67167164  0.05741652  0.81756956     0.11800
H1185       H  0.64921557  0.03681895  0.85201824     0.08100
C1186       C  0.60384496  0.00750522  0.86935149    -0.11000
C1187       C  0.59108914  0.00137989  0.89169354    -0.10300
C1188       C  0.57069630  0.01577298  0.90185589    -0.01200
C1189       C  0.56289260  0.03612080  0.88873145    -0.11400
C1190       C  0.57531830  0.04196701  0.86604781    -0.09800
H1191       H  0.61986085  0.99642550  0.86225321     0.08100
H1192       H  0.59768202  0.98558727  0.90130757     0.11800
H1193       H  0.54724133  0.04750416  0.89599010     0.11500
H1194       H  0.56924145  0.05791295  0.85640628     0.08100
C1195       C  0.59007178  0.00391902  0.18757599    -0.11000
C1196       C  0.58604758  0.02585870  0.19931445     0.06200
C1197       C  0.56850568  0.04226698  0.18817927    -0.09800
C1198       C  0.55589833  0.03701961  0.16529996    -0.11400
C1199       C  0.56030868  0.01511336  0.15336888    -0.01200
C1200       C  0.57722277  0.99853113  0.16510400    -0.10300
C1201       C  0.60146857  0.03214401  0.22218577     0.06200
H1202       H  0.56525056  0.05945618  0.19677485     0.08100
H1203       H  0.54296271  0.05011661  0.15688088     0.11600
H1204       H  0.58120656  0.98142109  0.15661221     0.11800
H1205       H  0.60337164  0.99094856  0.19573582     0.08100
C1206       C  0.58881494  0.04269721  0.24288195    -0.11000
C1207       C  0.60396609  0.05228384  0.26247523    -0.10300
C1208       C  0.63207012  0.05213859  0.26135181    -0.01200
C1209       C  0.64457711  0.03927343  0.24205825    -0.11400
C1210       C  0.62940009  0.02930074  0.22265544    -0.09800
H1211       H  0.56730822  0.04476744  0.24317946     0.08100
H1212       H  0.59386520  0.06251409  0.27686888     0.11800
H1213       H  0.66614494  0.03942480  0.24036780     0.11500
H1214       H  0.63967968  0.02119173  0.20694068     0.08100
C1215       C  0.58021431  0.93001184  0.06696683    -0.11000
C1216       C  0.57903185  0.91289088  0.08605774     0.06200
C1217       C  0.56095741  0.91620830  0.10581682    -0.09800
C1218       C  0.54630173  0.93721740  0.10773515    -0.11400
C1219       C  0.54918972  0.95526223  0.08982976    -0.01200
C1220       C  0.56528610  0.95100923  0.06876611    -0.10300
C1221       C  0.59723659  0.89208492  0.08571862     0.06200
H1222       H  0.55946972  0.90326353  0.12064354     0.08100
H1223       H  0.53424135  0.94018982  0.12432062     0.11600
H1224       H  0.56819084  0.96471297  0.05491099     0.11800
H1225       H  0.59353684  0.92755989  0.05117184     0.08100
C1226       C  0.58736858  0.86908660  0.08960643    -0.11000
C1227       C  0.60345604  0.84934563  0.08439823    -0.10300
C1228       C  0.62951564  0.85238387  0.07510088    -0.01200
C1229       C  0.64060438  0.87524448  0.07523504    -0.11400
C1230       C  0.62445841  0.89498147  0.08006605    -0.09800
H1231       H  0.56656380  0.86634695  0.09435444     0.08100
H1232       H  0.59433562  0.83194053  0.08407952     0.11800
H1233       H  0.66052238  0.87808266  0.06786880     0.11500
H1234       H  0.63278624  0.91254725  0.07774525     0.08100
C1235       C  0.04834307  0.51470313  0.21700666    -0.11000
C1236       C  0.03431676  0.49317757  0.21883973     0.06200
C1237       C  0.01732621  0.48663825  0.19894403    -0.09800
C1238       C  0.01635413  0.50000802  0.17693442    -0.11400
C1239       C  0.03231384  0.52025126  0.17425636    -0.01200
C1240       C  0.04752941  0.52795180  0.19485273    -0.10300
C1241       C  0.03747252  0.47725204  0.24099375     0.06200
H1242       H  0.00558760  0.47056441  0.19994818     0.08100
H1243       H  0.00509328  0.49325610  0.16113355     0.11600
H1244       H  0.06066809  0.54309286  0.19298815     0.11800
H1245       H  0.06143212  0.52045571  0.23195475     0.08100
C1246       C  0.03691961  0.45243567  0.23795611    -0.11000
C1247       C  0.03324714  0.43758271  0.25861830    -0.10300
C1248       C  0.02934910  0.44732281  0.28259437    -0.01200
C1249       C  0.03534547  0.47151345  0.28615292    -0.11400
C1250       C  0.03884177  0.48646267  0.26548466    -0.09800
H1251       H  0.03717965  0.44458814  0.21941680     0.08100
H1252       H  0.02895068  0.41902156  0.25524779     0.11800
H1253       H  0.03247394  0.47954985  0.30442428     0.11500
H1254       H  0.03982689  0.50540216  0.26867014     0.08100
C1255       C  0.13661558  0.49968938  0.08272143    -0.11000
C1256       C  0.14612743  0.48140590  0.09817308     0.06200
C1257       C  0.13184780  0.47567978  0.11983858    -0.09800
C1258       C  0.10857286  0.48801639  0.12606589    -0.11400
C1259       C  0.09870666  0.50617122  0.11055166    -0.01200
C1260       C  0.11297628  0.51184201  0.08873611    -0.10300
C1261       C  0.16995691  0.46740161  0.09082728     0.06200
H1262       H  0.13873899  0.46163374  0.13196555     0.08100
H1263       H  0.09811201  0.48304282  0.14299614     0.11600
H1264       H  0.10596231  0.52568356  0.07642353     0.11800
H1265       H  0.14716712  0.50417195  0.06567692     0.08100
C1266       C  0.16818212  0.44263949  0.08823429    -0.11000
C1267       C  0.18867080  0.42990582  0.07637827    -0.10300
C1268       C  0.21132362  0.44173754  0.06733160    -0.01200
C1269       C  0.21440476  0.46601579  0.07262953    -0.11400
C1270       C  0.19375209  0.47881066  0.08403227    -0.09800
H1271       H  0.14999328  0.43347262  0.09337399     0.08100
H1272       H  0.18556615  0.41136279  0.07190756     0.11800
H1273       H  0.23147980  0.47555668  0.06533633     0.11500
H1274       H  0.19568006  0.49783434  0.08615538     0.08100
C1275       C  0.14082501  0.48634480  0.92379398    -0.11000
C1276       C  0.15211512  0.48836842  0.94762267     0.06200
C1277       C  0.13997137  0.50347481  0.96537822    -0.09800
C1278       C  0.11640983  0.51580888  0.95958321    -0.11400
C1279       C  0.10478483  0.51349030  0.93577457    -0.01200
C1280       C  0.11766937  0.49891449  0.91785112    -0.10300
C1281       C  0.17553995  0.47370310  0.95454103     0.06200
H1282       H  0.14827242  0.50510912  0.98401594     0.08100
H1283       H  0.10709803  0.52678053  0.97382094     0.11600
H1284       H  0.10953750  0.49666450  0.89922657     0.11800
H1285       H  0.14984180  0.47486806  0.90981983     0.08100
C1286       C  0.17396733  0.44882394  0.95368690    -0.11000
C1287       C  0.19362584  0.43495026  0.96522525    -0.10300
C1288       C  0.21533063  0.44577170  0.97734764    -0.01200
C1289       C  0.21841603  0.47048758  0.97545080    -0.11400
C1290       C  0.19852033  0.48435846  0.96445288    -0.09800
H1291       H  0.15639758  0.44023477  0.94607630     0.08100
H1292       H  0.19039841  0.41605610  0.96702454     0.11800
H1293       H  0.23464284  0.47927520  0.98516166     0.11500
H1294       H  0.20026746  0.50348491  0.96507569     0.08100
C1295       C  0.04983106  0.51074563  0.83229666    -0.11000
C1296       C  0.03057067  0.49273115  0.83109249     0.06200
C1297       C  0.01234655  0.49047294  0.85109242    -0.09800
C1298       C  0.01446853  0.50492495  0.87251681    -0.11400
C1299       C  0.03508423  0.52168410  0.87445816    -0.01200
C1300       C  0.05222770  0.52486269  0.85382891    -0.10300
C1301       C  0.02976806  0.47602725  0.80935320     0.06200
H1302       H  0.99703817  0.47693743  0.85049242     0.08100
H1303       H  0.00149975  0.50159227  0.88836006     0.11600
H1304       H  0.06878588  0.53716586  0.85513130     0.11800
H1305       H  0.06408294  0.51294234  0.81721312     0.08100
C1306       C  0.02942108  0.48454353  0.78469086    -0.11000
C1307       C  0.02356412  0.46922425  0.76466013    -0.10300
C1308       C  0.01767274  0.44518273  0.76898146    -0.01200
C1309       C  0.02213940  0.43612825  0.79306771    -0.11400
C1310       C  0.02768366  0.45145676  0.81314595    -0.09800
H1311       H  0.03123992  0.50335253  0.78115339     0.08100
H1312       H  0.01968378  0.47682412  0.74644892     0.11800
H1313       H  0.01738234  0.41780353  0.79705211     0.11500
H1314       H  0.02862452  0.44430458  0.83189111     0.08100
C1315       C  0.81405218  0.48078711  0.93188554    -0.11000
C1316       C  0.79946011  0.48793495  0.95298288     0.06200
C1317       C  0.80886546  0.50719341  0.96740167    -0.09800
C1318       C  0.83264494  0.51888119  0.96090713    -0.11400
C1319       C  0.84713442  0.51173704  0.93962870    -0.01200
C1320       C  0.83742814  0.49261105  0.92519787    -0.10300
C1321       C  0.77527593  0.47451921  0.96060606     0.06200
H1322       H  0.79811584  0.51283901  0.98400502     0.08100
H1323       H  0.83957883  0.53350432  0.97238845     0.11600
H1324       H  0.84810969  0.48645755  0.90875830     0.11800
H1325       H  0.80730037  0.46603000  0.92049182     0.08100
C1326       C  0.75173607  0.48644317  0.96740349    -0.11000
C1327       C  0.73045698  0.47405614  0.97821006    -0.10300
C1328       C  0.73250476  0.44958667  0.98280766    -0.01200
C1329       C  0.75505058  0.43735527  0.97390977    -0.11400
C1330       C  0.77620974  0.44969726  0.96278197    -0.09800
H1331       H  0.75037343  0.50551081  0.96557056     0.08100
H1332       H  0.71358517  0.48397238  0.98548238     0.11800
H1333       H  0.75751858  0.41869515  0.97796247     0.11500
H1334       H  0.79416573  0.44007935  0.95771383     0.08100
C1335       C  0.93238486  0.48954136  0.84979070    -0.11000
C1336       C  0.91342508  0.49298754  0.83066728     0.06200
C1337       C  0.89533385  0.51185558  0.83309232    -0.09800
C1338       C  0.89485012  0.52574250  0.85495745    -0.11400
C1339       C  0.91281733  0.52151272  0.87470844    -0.01200
C1340       C  0.93217863  0.50373082  0.87152856    -0.10300
C1341       C  0.91239445  0.47665388  0.80856923     0.06200
H1342       H  0.88051478  0.51494772  0.81873255     0.08100
H1343       H  0.87906078  0.53871096  0.85727180     0.11600
H1344       H  0.94562462  0.49945853  0.88670932     0.11800
H1345       H  0.94679276  0.47529134  0.84826770     0.08100
C1346       C  0.91289333  0.45194506  0.81184713    -0.11000
C1347       C  0.91746549  0.43670832  0.79143536    -0.10300
C1348       C  0.92275589  0.44595899  0.76755360    -0.01200
C1349       C  0.91794495  0.47028272  0.76368448    -0.11400
C1350       C  0.91302535  0.48553652  0.78405223    -0.09800
H1351       H  0.91164588  0.44453100  0.83046480     0.08100
H1352       H  0.92119510  0.41813508  0.79508848     0.11800
H1353       H  0.92229148  0.47802699  0.74562225     0.11500
H1354       H  0.91233229  0.50446545  0.78088615     0.08100
C1355       C  0.94060485  0.49109749  0.19876191    -0.11000
C1356       C  0.92320236  0.49520828  0.21911381     0.06200
C1357       C  0.90477998  0.51389567  0.21746174    -0.09800
C1358       C  0.90213112  0.52665613  0.19516265    -0.11400
C1359       C  0.91827109  0.52145120  0.17426138    -0.01200
C1360       C  0.93822968  0.50415242  0.17658132    -0.10300
C1361       C  0.92366066  0.47937782  0.24142310     0.06200
H1362       H  0.89119587  0.51757524  0.23279472     0.08100
H1363       H  0.88611866  0.53947918  0.19360275     0.11600
H1364       H  0.95042777  0.49933710  0.16057508     0.11800
H1365       H  0.95534380  0.47708962  0.19965616     0.08100
C1366       C  0.92564816  0.45467228  0.23833004    -0.11000
C1367       C  0.93075103  0.44001160  0.25885036    -0.10300
C1368       C  0.93486554  0.44982652  0.28276717    -0.01200
C1369       C  0.92914159  0.47405327  0.28638437    -0.11400
C1370       C  0.92365935  0.48872666  0.26587837    -0.09800
H1371       H  0.92494053  0.44684472  0.21978759     0.08100
H1372       H  0.93547745  0.42154370  0.25536923     0.11800
H1373       H  0.93274606  0.48221965  0.30446342     0.11500
H1374       H  0.92185650  0.50764744  0.26892777     0.08100
C1375       C  0.75122848  0.48603693  0.08834580    -0.11000
C1376       C  0.77473509  0.47405795  0.09497042     0.06200
C1377       C  0.77543218  0.44920862  0.09278004    -0.09800
C1378       C  0.75422520  0.43689439  0.08156546    -0.11400
C1379       C  0.73183956  0.44918228  0.07261710    -0.01200
C1380       C  0.72985631  0.47366683  0.07753557    -0.10300
C1381       C  0.79933825  0.48740563  0.10179241     0.06200
H1382       H  0.79333625  0.43954807  0.09773785     0.08100
H1383       H  0.75662672  0.41821033  0.07736804     0.11600
H1384       H  0.71306983  0.48362800  0.07033256     0.11800
H1385       H  0.75003938  0.50513552  0.09015808     0.08100
C1386       C  0.80934257  0.50534061  0.08610219    -0.11000
C1387       C  0.83379638  0.51653852  0.09140482    -0.10300
C1388       C  0.84850464  0.51030754  0.11276686    -0.01200
C1389       C  0.83808976  0.49259996  0.12859967    -0.11400
C1390       C  0.81398878  0.48120473  0.12307661    -0.09800
H1391       H  0.79856538  0.51023181  0.06934826     0.08100
H1392       H  0.84113650  0.53005635  0.07884416     0.11800
H1393       H  0.84876169  0.48721078  0.14523219     0.11500
H1394       H  0.80678483  0.46745208  0.13543538     0.08100
C1395       C  0.04582891  0.70886411  0.26696206    -0.11000
C1396       C  0.04458876  0.71803027  0.24259101     0.06200
C1397       C  0.04144509  0.74260985  0.23965861    -0.09800
C1398       C  0.03637347  0.75723944  0.26041806    -0.11400
C1399       C  0.03328145  0.74743552  0.28439492    -0.01200
C1400       C  0.04023169  0.72346628  0.28770652    -0.10300
C1401       C  0.04426926  0.70200384  0.22029171     0.06200
H1402       H  0.04106126  0.75025121  0.22111089     0.08100
H1403       H  0.03072015  0.77549987  0.25717100     0.11600
H1404       H  0.03749081  0.71528920  0.30582339     0.11800
H1405       H  0.04854659  0.69003095  0.26980091     0.08100
C1406       C  0.06426384  0.68489457  0.21666537    -0.11000
C1407       C  0.06543412  0.67181351  0.19429007    -0.10300
C1408       C  0.04626248  0.67508592  0.17534263    -0.01200
C1409       C  0.02504917  0.69079363  0.17983100    -0.11400
C1410       C  0.02416923  0.70424393  0.20201380    -0.09800
H1411       H  0.07991317  0.68271543  0.23043273     0.08100
H1412       H  0.08241980  0.66029846  0.19100474     0.11800
H1413       H  0.01048438  0.69419561  0.16531735     0.11500
H1414       H  0.00827345  0.71706161  0.20452847     0.08100
C1415       C  0.14214419  0.71929243  0.11694003    -0.11000
C1416       C  0.15646511  0.71297288  0.09536560     0.06200
C1417       C  0.14656921  0.69437549  0.08020587    -0.09800
C1418       C  0.12282239  0.68245647  0.08655087    -0.11400
C1419       C  0.10874345  0.68867864  0.10838961    -0.01200
C1420       C  0.11876950  0.70728675  0.12340547    -0.10300
C1421       C  0.18093789  0.72645593  0.08819218     0.06200
H1422       H  0.15695752  0.68933735  0.06319441     0.08100
H1423       H  0.11568303  0.66826386  0.07459074     0.11600
H1424       H  0.10841459  0.71278977  0.14027713     0.11800
H1425       H  0.14916579  0.73345603  0.12900487     0.08100
C1426       C  0.18126581  0.75141776  0.08926896    -0.11000
C1427       C  0.20223569  0.76424636  0.07836003    -0.10300
C1428       C  0.22335152  0.75236008  0.06639086    -0.01200
C1429       C  0.22464781  0.72749190  0.06820782    -0.11400
C1430       C  0.20350050  0.71466020  0.07866912    -0.09800
H1431       H  0.16423555  0.76106081  0.09659481     0.08100
H1432       H  0.20039064  0.78330122  0.07672556     0.11800
H1433       H  0.24043215  0.71786885  0.05867132     0.11500
H1434       H  0.20412258  0.69548158  0.07805069     0.08100
C1435       C  0.90266754  0.68672160  0.21965407    -0.11000
C1436       C  0.92239336  0.70429735  0.22175254     0.06200
C1437       C  0.94062312  0.70720768  0.20188730    -0.09800
C1438       C  0.93796006  0.69407338  0.17970094    -0.11400
C1439       C  0.91679913  0.67802887  0.17683539    -0.01200
C1440       C  0.89967642  0.67394901  0.19725861    -0.10300
C1441       C  0.92378148  0.72005568  0.24417240     0.06200
H1442       H  0.95636365  0.72031387  0.20318907     0.08100
H1443       H  0.95094537  0.69801350  0.16402237     0.11600
H1444       H  0.88280015  0.66208344  0.19522748     0.11800
H1445       H  0.88849838  0.68396621  0.23469692     0.08100
C1446       C  0.92758056  0.74458077  0.24132790    -0.11000
C1447       C  0.93448158  0.75878143  0.26188662    -0.10300
C1448       C  0.93849859  0.74858520  0.28550830    -0.01200
C1449       C  0.93093758  0.72480191  0.28897984    -0.11400
C1450       C  0.92363846  0.71062010  0.26845003    -0.09800
H1451       H  0.92709024  0.75245783  0.22289463     0.08100
H1452       H  0.94058001  0.77691711  0.25856771     0.11800
H1453       H  0.93437522  0.71637143  0.30685133     0.11500
H1454       H  0.92046987  0.69183732  0.27124462     0.08100
C1455       C  0.81107755  0.71620627  0.12605417    -0.11000
C1456       C  0.80972965  0.72769972  0.10290651     0.06200
C1457       C  0.82956539  0.72302264  0.08483591    -0.09800
C1458       C  0.85045400  0.70720476  0.08987411    -0.11400
C1459       C  0.85219856  0.69616312  0.11328697    -0.01200
C1460       C  0.83223563  0.70081537  0.13129206    -0.10300
C1461       C  0.78695718  0.74349872  0.09690600     0.06200
H1462       H  0.82871266  0.73144481  0.06668772     0.08100
H1463       H  0.86568411  0.70421726  0.07578386     0.11600
H1464       H  0.83310330  0.69264941  0.14957160     0.11800
H1465       H  0.79596287  0.71942611  0.14020417     0.08100
C1466       C  0.76063829  0.73503197  0.09866583    -0.11000
C1467       C  0.73957960  0.74767591  0.08784695    -0.10300
C1468       C  0.74449906  0.76910269  0.07543637    -0.01200
C1469       C  0.77031224  0.77883381  0.07625967    -0.11400
C1470       C  0.79143848  0.76603735  0.08671375    -0.09800
H1471       H  0.75672224  0.71765342  0.10634995     0.08100
H1472       H  0.72006193  0.73946156  0.08668899     0.11800
H1473       H  0.77468632  0.79499882  0.06620645     0.11500
H1474       H  0.81153944  0.77301714  0.08536876     0.08100
C1475       C  0.92598346  0.71514014  0.85313568    -0.11000
C1476       C  0.90925071  0.70856677  0.83305015     0.06200
C1477       C  0.89449030  0.68748216  0.83502055    -0.09800
C1478       C  0.89472163  0.67443908  0.85727398    -0.11400
C1479       C  0.91011323  0.68185293  0.87785273    -0.01200
C1480       C  0.92637702  0.70194114  0.87531179    -0.10300
C1481       C  0.90727768  0.72382846  0.81035139     0.06200
H1482       H  0.88151827  0.68183207  0.81993431     0.08100
H1483       H  0.88135471  0.65944882  0.85907932     0.11600
H1484       H  0.93777018  0.70847404  0.89112894     0.11800
H1485       H  0.93816452  0.73095474  0.85199638     0.08100
C1486       C  0.90734246  0.74868821  0.81266658    -0.11000
C1487       C  0.91187104  0.76298408  0.79173673    -0.10300
C1488       C  0.91720948  0.75262268  0.76829483    -0.01200
C1489       C  0.91227380  0.72821503  0.76524335    -0.11400
C1490       C  0.90767045  0.71386104  0.78616189    -0.09800
H1491       H  0.90598757  0.75700062  0.83094333     0.08100
H1492       H  0.91557296  0.78171060  0.79467865     0.11800
H1493       H  0.91647261  0.71972558  0.74742735     0.11500
H1494       H  0.90721197  0.69481938  0.78360895     0.08100
C1495       C  0.80892383  0.69678865  0.97405196    -0.11000
C1496       C  0.79479064  0.71097610  0.95694407     0.06200
C1497       C  0.80428358  0.71272845  0.93237944    -0.09800
C1498       C  0.82771171  0.70112529  0.92513325    -0.11400
C1499       C  0.84263685  0.68766520  0.94235818    -0.01200
C1500       C  0.83271423  0.68532983  0.96687107    -0.10300
C1501       C  0.77133457  0.72527221  0.96506594     0.06200
H1502       H  0.79369091  0.72337006  0.91881164     0.08100
H1503       H  0.83441395  0.70323954  0.90600012     0.11600
H1504       H  0.84359374  0.67513536  0.98061045     0.11800
H1505       H  0.80208869  0.69530210  0.99322452     0.08100
C1506       C  0.75042157  0.71489156  0.97862409    -0.11000
C1507       C  0.73051909  0.72905546  0.98945773    -0.10300
C1508       C  0.73164889  0.75392497  0.98767494    -0.01200
C1509       C  0.75116604  0.76411563  0.97223838    -0.11400
C1510       C  0.77072662  0.74987430  0.96084391    -0.09800
H1511       H  0.75026444  0.69597230  0.98192587     0.08100
H1512       H  0.71606815  0.72083576  0.00178177     0.11800
H1513       H  0.75298124  0.78321107  0.97117164     0.11500
H1514       H  0.78665564  0.75831378  0.95044584     0.08100
C1515       C  0.17429598  0.75473238  0.95750115    -0.11000
C1516       C  0.17524551  0.72987139  0.95552659     0.06200
C1517       C  0.19900184  0.71809146  0.96162892    -0.09800
C1518       C  0.22048050  0.73065247  0.97182050    -0.11400
C1519       C  0.21831613  0.75510090  0.97664436    -0.01200
C1520       C  0.19563413  0.76725121  0.96817170    -0.10300
C1521       C  0.15086891  0.71621424  0.94910777     0.06200
H1522       H  0.20035237  0.69899654  0.95987455     0.08100
H1523       H  0.23755084  0.72086329  0.97870137     0.11600
H1524       H  0.19321804  0.78594964  0.97229089     0.11800
H1525       H  0.15619479  0.76422384  0.95280408     0.08100
C1526       C  0.14186124  0.69767257  0.96455033    -0.11000
C1527       C  0.11801078  0.68560178  0.95909189    -0.10300
C1528       C  0.10304673  0.69164490  0.93784633    -0.01200
C1529       C  0.11235730  0.71012607  0.92244459    -0.11400
C1530       C  0.13580470  0.72233740  0.92810591    -0.09800
H1531       H  0.15301989  0.69287013  0.98111449     0.08100
H1532       H  0.11139943  0.67154006  0.97133882     0.11800
H1533       H  0.10133303  0.71546675  0.90599684     0.11500
H1534       H  0.14226516  0.73655421  0.91597650     0.08100
C1535       C  0.00890257  0.70960624  0.85260737    -0.11000
C1536       C  0.02749161  0.70864128  0.83275270     0.06200
C1537       C  0.04837594  0.69211075  0.83393532    -0.09800
C1538       C  0.05194323  0.67835982  0.85537721    -0.11400
C1539       C  0.03444812  0.68047590  0.87590179    -0.01200
C1540       C  0.01230522  0.69557890  0.87397647    -0.10300
C1541       C  0.02551162  0.72536505  0.81135189     0.06200
H1542       H  0.06293461  0.69090001  0.81896596     0.08100
H1543       H  0.06954611  0.66726320  0.85669876     0.11600
H1544       H  0.99895764  0.69801574  0.88976606     0.11800
H1545       H  0.99226518  0.72185907  0.85197475     0.08100
C1546       C  0.02793836  0.71729674  0.78649577    -0.11000
C1547       C  0.02108982  0.73215738  0.76655193    -0.10300
C1548       C  0.01178319  0.75528853  0.77117169    -0.01200
C1549       C  0.01333642  0.76433626  0.79568320    -0.11400
C1550       C  0.01968287  0.74941532  0.81563481    -0.09800
H1551       H  0.03273610  0.69893212  0.78258485     0.08100
H1552       H  0.01954033  0.72459061  0.74793185     0.11800
H1553       H  0.00578327  0.78192559  0.79983383     0.11500
H1554       H  0.01840838  0.75631603  0.83455714     0.08100
loop_ 
_geom_bond_atom_site_label_1 
_geom_bond_atom_site_label_2 
_geom_bond_distance 
_geom_bond_site_symmetry_2 
_ccdc_geom_bond_type 
C1            N2   1.349       .  A
C1            N6   1.362       .  A
C1         C1528   1.487       .  S
N2            C3   1.349       .  A
C3            N4   1.366       .  A
C3         C1539   1.475       .  S
N4            C5   1.370       .  A
C5            N6   1.369       .  A
C5           C51   1.487       .  S
C7            N8   1.362       .  A
C7           N12   1.350       .  A
C7         C1499   1.493       .  S
N8            C9   1.370       .  A
C9           N10   1.371       .  A
C9           C80   1.493       .  S
N10          C11   1.368       .  A
C11          N12   1.350       .  A
C11        C1479   1.476       .  S
C13          N14   1.351       .  A
C13          N18   1.367       .  A
C13        C1439   1.473       .  S
N14          C15   1.350       .  A
C15          N16   1.362       .  A
C15        C1459   1.484       .  S
N16          C17   1.368       .  A
C17          N18   1.369       .  A
C17          C71   1.490       .  S
C19          N20   1.370       .  A
C19          N24   1.350       .  A
C19        C1408   1.479       .  S
N20          C21   1.373       .  A
C21          N22   1.372       .  A
C21          C60   1.498       .  S
N22          C23   1.363       .  A
C23          N24   1.349       .  A
C23        C1419   1.491       .  S
C25          N26   1.351       .  A
C25          N30   1.368       .  A
C25        C1359   1.478       .  S
N26          C27   1.351       .  A
C27          N28   1.364       .  A
C27        C1388   1.494       .  S
N28          C29   1.371       .  A
C29          N30   1.371       .  A
C29          C77   1.496       .  S
C31          N32   1.360       .  A
C31          N36   1.348       .  A
C31        C1319   1.485       .  S
N32          C33   1.368       .  A
C33          N34   1.376       .  A
C33          C74   1.495       .  S
N34          C35   1.372       .  A
C35          N36   1.349       .  A
C35        C1339   1.482       .  S
C37          N38   1.349       .  A
C37          N42   1.364       .  A
C37        C1279   1.492       .  S
N38          C39   1.349       .  A
C39          N40   1.369       .  A
C39        C1299   1.480       .  S
N40          C41   1.373       .  A
C41          N42   1.371       .  A
C41          C57   1.495       .  S
C43          N44   1.368       .  A
C43          N48   1.349       .  A
C43        C1239   1.475       .  S
N44          C45   1.372       .  A
C45          N46   1.369       .  A
C45          C54   1.492       .  S
N46          C47   1.362       .  A
C47          N48   1.349       .  A
C47        C1259   1.487       .  S
O49         Zr61   2.446   1_556  S
O49          C51   1.289       .  A
O50         Zr87   2.462   1_455  S
O50          C51   1.294       .  A
O52         Zr64   2.458       .  S
O52          C54   1.292       .  A
O53         Zr88   2.463   1_455  S
O53          C54   1.294       .  A
O55         Zr64   2.455   1_556  S
O55          C57   1.291       .  A
O56         Zr87   2.472   1_455  S
O56          C57   1.295       .  A
O58         Zr61   2.450       .  S
O58          C60   1.290       .  A
O59         Zr88   2.484   1_455  S
O59          C60   1.298       .  A
Zr61         O62   2.434       .  S
Zr61         O63   2.435       .  S
Zr61         O67   2.375   1_554  S
Zr61         O68   2.375       .  S
Zr61         O91   2.376   1_455  S
Zr61         O93   2.375   1_455  S
O62         H105   0.990       .  S
O63         H104   0.991       .  S
O63         H108   0.989   1_455  S
Zr64         O65   2.437       .  S
Zr64         O66   2.434       .  S
Zr64         O68   2.371       .  S
Zr64         O67   2.375   1_554  S
Zr64         O92   2.375   1_454  S
Zr64         O94   2.375   1_455  S
O65         H106   0.990       .  S
O65         H109   0.990       .  S
O66          H99   0.990       .  S
O67         Zr87   2.400   1_455  S
O68         Zr88   2.401   1_455  S
O68          H95   0.966       .  S
O69         Zr81   2.448       .  S
O69          C71   1.290       .  A
O70         Zr88   2.469       .  S
O70          C71   1.295       .  A
O72         Zr84   2.461   1_556  S
O72          C74   1.293       .  A
O73         Zr87   2.465       .  S
O73          C74   1.293       .  A
O75         Zr84   2.456       .  S
O75          C77   1.291       .  A
O76         Zr88   2.475       .  S
O76          C77   1.296       .  A
O78         Zr81   2.442   1_556  S
O78          C80   1.288       .  A
O79         Zr87   2.478       .  S
O79          C80   1.296       .  A
Zr81         O82   2.437       .  S
Zr81         O83   2.435       .  S
Zr81         O89   2.374       .  S
Zr81         O90   2.375       .  S
Zr81         O93   2.373       .  S
Zr81         O91   2.377       .  S
O82         H102   0.990       .  S
O82         H107   0.990       .  S
O83         H103   0.990       .  S
Zr84         O85   2.435       .  S
Zr84         O86   2.434       .  S
Zr84         O90   2.370       .  S
Zr84         O89   2.376       .  S
Zr84         O94   2.378       .  S
Zr84         O92   2.375   1_554  S
O85         H101   0.990       .  S
O86         H100   0.990       .  S
O86         H110   0.991       .  S
Zr87         O90   2.397   1_556  S
Zr87         O92   2.401       .  S
Zr87         O93   2.401   1_556  S
Zr88         O89   2.403       .  S
Zr88         O91   2.398       .  S
Zr88         O94   2.399       .  S
O89          H97   0.968       .  S
O92          H96   0.966       .  S
O93          H98   0.964   1_554  S
C111        N112   1.364       .  A
C111        N116   1.348   1_545  A
C111       C1199   1.491       .  S
N112        C113   1.371       .  A
C113        N114   1.371   1_545  A
C113        C161   1.491       .  S
N114        C115   1.366       .  A
C115        N116   1.349       .  A
C115       C1219   1.477       .  S
C117        N118   1.361       .  A
C117        N122   1.351   1_545  A
C117       C1188   1.486       .  S
N118        C119   1.366       .  A
C119        N120   1.370   1_545  A
C119        C190   1.489       .  S
N120        C121   1.367       .  A
C121        N122   1.352       .  A
C121       C1159   1.477       .  S
C123        N124   1.352       .  A
C123        N128   1.369       .  A
C123       C1119   1.479       .  S
N124        C125   1.352       .  A
C125        N126   1.361       .  A
C125       C1139   1.489       .  S
N126        C127   1.367       .  A
C127        N128   1.371       .  A
C127        C181   1.492       .  S
C129        N130   1.353       .  A
C129        N134   1.367       .  A
C129       C1088   1.473       .  S
N130        C131   1.350       .  A
C131        N132   1.357       .  A
C131       C1108   1.477       .  S
N132        C133   1.363       .  A
C133        N134   1.369       .  A
C133        C170   1.483       .  S
C135        N136   1.352       .  A
C135        N140   1.371       .  A
C135       C1039   1.481       .  S
N136        C137   1.348       .  A
C137        N138   1.357       .  A
C137       C1059   1.478       .  S
N138        C139   1.364       .  A
C139        N140   1.373       .  A
C139        C187   1.490       .  S
C141        N142   1.362       .  A
C141        N146   1.349   1_545  A
C141        C999   1.484       .  S
N142        C143   1.368       .  A
C143        N144   1.371   1_545  A
C143        C184   1.490       .  S
N144        C145   1.367       .  A
C145        N146   1.349       .  A
C145       C1019   1.476       .  S
C147        N148   1.352   1_545  A
C147        N152   1.360       .  A
C147        C959   1.483       .  S
N148        C149   1.353       .  A
C149        N150   1.364       .  A
C149        C979   1.474       .  S
N150        C151   1.367   1_565  A
C151        N152   1.365       .  A
C151        C167   1.481       .  S
C153        N154   1.350       .  A
C153        N158   1.368       .  A
C153        C948   1.476       .  S
N154        C155   1.348       .  A
C155        N156   1.360       .  A
C155        C928   1.485       .  S
N156        C157   1.368       .  A
C157        N158   1.370       .  A
C157        C164   1.489       .  S
O159       Zr171   2.455       .  S
O159        C161   1.291       .  A
O160       Zr197   2.462       .  S
O160        C161   1.293       .  A
O162       Zr174   2.444       .  S
O162        C164   1.288       .  A
O163       Zr198   2.468       .  S
O163        C164   1.294       .  A
O165       Zr174   2.448       .  S
O165        C167   1.290       .  A
O166       Zr197   2.447       .  S
O166        C167   1.291       .  A
O168       Zr171   2.442       .  S
O168        C170   1.289       .  A
O169       Zr198   2.455       .  S
O169        C170   1.291       .  A
Zr171       O172   2.434       .  S
Zr171       O173   2.435       .  S
Zr171       O177   2.367       .  S
Zr171       O178   2.376       .  S
Zr171       O201   2.375       .  S
Zr171       O203   2.374       .  S
O172        H215   0.990       .  S
O173        H214   0.990       .  S
O173        H218   0.990       .  S
Zr174       O175   2.437       .  S
Zr174       O176   2.434       .  S
Zr174       O178   2.377       .  S
Zr174       O177   2.370       .  S
Zr174       O202   2.375       .  S
Zr174       O204   2.374       .  S
O175        H216   0.989       .  S
O175        H219   0.991       .  S
O176        H209   0.990       .  S
O177       Zr197   2.389       .  S
O178       Zr198   2.403       .  S
O178        H205   0.964       .  S
O179       Zr191   2.460       .  S
O179        C181   1.292       .  A
O180       Zr198   2.462   1_556  S
O180        C181   1.293       .  A
O182       Zr194   2.456       .  S
O182        C184   1.291       .  A
O183       Zr197   2.459   1_556  S
O183        C184   1.293       .  A
O185       Zr194   2.458       .  S
O185        C187   1.292       .  A
O186       Zr198   2.458   1_556  S
O186        C187   1.292       .  A
O188       Zr191   2.462       .  S
O188        C190   1.292       .  A
O189       Zr197   2.451   1_556  S
O189        C190   1.291       .  A
Zr191       O192   2.438       .  S
Zr191       O193   2.434       .  S
Zr191       O199   2.377       .  S
Zr191       O200   2.371       .  S
Zr191       O203   2.378   1_556  S
Zr191       O201   2.375   1_556  S
O192        H212   0.990       .  S
O192        H217   0.991       .  S
O193        H213   0.990       .  S
Zr194       O195   2.433       .  S
Zr194       O196   2.435       .  S
Zr194       O200   2.373       .  S
Zr194       O199   2.374       .  S
Zr194       O204   2.372   1_556  S
Zr194       O202   2.375   1_556  S
O195        H211   0.990       .  S
O196        H210   0.990       .  S
O196        H220   0.990       .  S
Zr197       O200   2.393   1_554  S
Zr197       O202   2.398       .  S
Zr197       O203   2.396       .  S
Zr198       O199   2.403   1_554  S
Zr198       O201   2.397       .  S
Zr198       O204   2.395       .  S
O199        H207   0.966       .  S
O202        H206   0.955       .  S
O203        H208   0.958       .  S
C221        N222   1.351   1_545  A
C221        N226   1.360       .  A
C221        C879   1.489       .  S
N222        C223   1.353       .  A
C223        N224   1.367       .  A
C223        C899   1.478       .  S
N224        C225   1.369   1_565  A
C225        N226   1.366       .  A
C225        C277   1.486       .  S
C227        N228   1.347   1_545  A
C227        N232   1.360       .  A
C227        C859   1.481       .  S
N228        C229   1.347       .  A
C229        N230   1.364       .  A
C229        C839   1.466       .  S
N230        C231   1.369   1_565  A
C231        N232   1.368       .  A
C231        C294   1.483       .  S
C233        N234   1.367       .  A
C233        N238   1.349       .  A
C233        C808   1.476       .  S
N234        C235   1.372       .  A
C235        N236   1.371       .  A
C235        C297   1.496       .  S
N236        C237   1.365       .  A
C237        N238   1.349       .  A
C237        C819   1.490       .  S
C239        N240   1.368       .  A
C239        N244   1.350       .  A
C239        C768   1.475       .  S
N240        C241   1.370       .  A
C241        N242   1.367       .  A
C241        C274   1.489       .  S
N242        C243   1.360       .  A
C243        N244   1.348       .  A
C243        C779   1.480       .  S
C245        N246   1.350       .  A
C245        N250   1.373       .  A
C245        C719   1.481       .  S
N246        C247   1.349       .  A
C247        N248   1.358       .  A
C247        C739   1.481       .  S
N248        C249   1.366       .  A
C249        N250   1.375       .  A
C249        C291   1.495       .  S
C251        N252   1.351   1_545  A
C251        N256   1.362       .  A
C251        C679   1.488       .  S
N252        C253   1.350       .  A
C253        N254   1.367       .  A
C253        C708   1.477       .  S
N254        C255   1.371   1_565  A
C255        N256   1.368       .  A
C255        C300   1.490       .  S
C257        N258   1.349   1_545  A
C257        N262   1.363       .  A
C257        C639   1.487       .  S
N258        C259   1.350       .  A
C259        N260   1.370       .  A
C259        C668   1.478       .  S
N260        C261   1.373   1_565  A
C261        N262   1.370       .  A
C261        C271   1.499       .  S
C263        N264   1.366       .  A
C263        N268   1.349       .  A
C263        C599   1.470       .  S
N264        C265   1.370       .  A
C265        N266   1.363       .  A
C265        C280   1.479       .  S
N266        C267   1.356       .  A
C267        N268   1.348       .  A
C267        C619   1.475       .  S
O269       Zr281   2.461       .  S
O269        C271   1.292       .  A
O270       Zr307   2.473   1_455  S
O270        C271   1.295       .  A
O272       Zr284   2.444       .  S
O272        C274   1.289       .  A
O273       Zr308   2.468   1_455  S
O273        C274   1.294       .  A
O275       Zr284   2.448       .  S
O275        C277   1.290       .  A
O276       Zr307   2.458   1_455  S
O276        C277   1.292       .  A
O278       Zr281   2.449       .  S
O278        C280   1.291       .  A
O279       Zr308   2.443   1_455  S
O279        C280   1.290       .  A
Zr281       O282   2.435       .  S
Zr281       O283   2.436       .  S
Zr281       O287   2.368       .  S
Zr281       O288   2.378       .  S
Zr281       O311   2.373   1_455  S
Zr281       O313   2.376   1_455  S
O282        H325   0.990       .  S
O283        H324   0.990       .  S
O283        H328   0.990       .  S
Zr284       O285   2.437       .  S
Zr284       O286   2.434       .  S
Zr284       O288   2.373       .  S
Zr284       O287   2.371       .  S
Zr284       O312   2.371   1_455  S
Zr284       O314   2.380   1_455  S
O285        H326   0.990       .  S
O285        H329   0.990       .  S
O286        H319   0.990   1_455  S
O287       Zr307   2.391   1_455  S
O288       Zr308   2.405   1_455  S
O288        H315   0.966       .  S
O289       Zr301   2.458       .  S
O289        C291   1.292       .  A
O290       Zr308   2.465       .  S
O290        C291   1.293       .  A
O292       Zr304   2.445       .  S
O292        C294   1.290       .  A
O293       Zr307   2.456       .  S
O293        C294   1.293       .  A
O295       Zr304   2.461       .  S
O295        C297   1.292       .  A
O296       Zr308   2.467       .  S
O296        C297   1.294       .  A
O298       Zr301   2.458       .  S
O298        C300   1.292       .  A
O299       Zr307   2.456       .  S
O299        C300   1.292       .  A
Zr301       O302   2.438       .  S
Zr301       O303   2.434       .  S
Zr301       O309   2.376       .  S
Zr301       O310   2.372       .  S
Zr301       O313   2.376       .  S
Zr301       O311   2.368       .  S
O302        H322   0.990       .  S
O302        H327   0.990       .  S
O303        H323   0.990       .  S
Zr304       O305   2.434       .  S
Zr304       O306   2.435       .  S
Zr304       O310   2.377       .  S
Zr304       O309   2.375       .  S
Zr304       O314   2.371       .  S
Zr304       O312   2.380       .  S
O305        H321   0.990       .  S
O306        H320   0.991       .  S
O306        H330   0.990       .  S
Zr307       O310   2.398       .  S
Zr307       O312   2.401       .  S
Zr307       O313   2.397       .  S
Zr308       O309   2.397       .  S
Zr308       O311   2.396       .  S
Zr308       O314   2.391       .  S
O309        H317   0.967       .  S
O312        H316   0.963       .  S
O313        H318   0.958       .  S
C331       C1248   1.485       .  S
C331        C332   1.390   1_455  A
C331        C336   1.417       .  A
C332        C333   1.389       .  A
C332        H351   1.088       .  S
C333       C1368   1.484       .  S
C333        C334   1.417       .  A
C334        C335   1.427       .  A
C334        C341   1.406       .  A
C335        C336   1.429   1_655  A
C335        C340   1.423       .  A
C336        C337   1.405       .  A
C337        C338   1.401       .  A
C337        H347   1.083       .  S
C338        C339   1.406       .  A
C338        H348   1.083       .  S
C339        C340   1.426   1_455  A
C339        C346   1.414       .  A
C340        C343   1.430       .  A
C341        C342   1.403       .  A
C341        H349   1.083       .  S
C342        C343   1.405       .  A
C342        H350   1.083       .  S
C343        C344   1.421       .  A
C344        C728   1.489       .  S
C344        C345   1.389       .  A
C345        C346   1.389   1_655  A
C345        H352   1.088       .  S
C346        C608   1.480       .  S
C353        C968   1.476       .  S
C353        C354   1.391       .  A
C353        C358   1.411       .  A
C354        C355   1.393       .  A
C354        H373   1.087       .  S
C355        C919   1.482       .  S
C355        C356   1.414       .  A
C356        C357   1.426       .  A
C356        C363   1.404       .  A
C357        C358   1.422       .  A
C357        C362   1.418       .  A
C358        C359   1.406       .  A
C359        C360   1.396       .  A
C359        H369   1.083       .  S
C360        C361   1.403       .  A
C360        H370   1.083       .  S
C361        C362   1.426       .  A
C361        C368   1.414       .  A
C362        C365   1.421       .  A
C363        C364   1.396       .  A
C363        H371   1.083       .  S
C364        C365   1.406       .  A
C364        H372   1.083       .  S
C365        C366   1.409       .  A
C366        C628   1.471       .  S
C366        C367   1.390       .  A
C367        C368   1.391       .  A
C367        H374   1.087       .  S
C368        C648   1.481       .  S
C375       C1268   1.479       .  S
C375        C376   1.392       .  A
C375        C380   1.413       .  A
C376        C377   1.393   1_554  A
C376        H395   1.087       .  S
C377       C1288   1.484       .  S
C377        C378   1.417       .  A
C378        C379   1.426   1_556  A
C378        C385   1.406       .  A
C379        C380   1.425       .  A
C379        C384   1.420       .  A
C380        C381   1.406       .  A
C381        C382   1.398       .  A
C381        H391   1.083       .  S
C382        C383   1.404       .  A
C382        H392   1.083       .  S
C383        C384   1.425       .  A
C383        C390   1.413       .  A
C384        C387   1.425   1_554  A
C385        C386   1.401       .  A
C385        H393   1.083       .  S
C386        C387   1.405       .  A
C386        H394   1.083       .  S
C387        C388   1.416       .  A
C388       C1048   1.481       .  S
C388        C389   1.392   1_556  A
C389        C390   1.390       .  A
C389        H396   1.088       .  S
C390        C939   1.479       .  S
C397       C1099   1.474       .  S
C397        C398   1.389       .  A
C397        C402   1.408       .  A
C398        C399   1.393       .  A
C398        H417   1.087       .  S
C399       C1208   1.483       .  S
C399        C400   1.419       .  A
C400        C401   1.426       .  A
C400        C407   1.406       .  A
C401        C402   1.423       .  A
C401        C406   1.419       .  A
C402        C403   1.404       .  A
C403        C404   1.393       .  A
C403        H413   1.083       .  S
C404        C405   1.403       .  A
C404        H414   1.083       .  S
C405        C406   1.425       .  A
C405        C412   1.409       .  A
C406        C409   1.424       .  A
C407        C408   1.401       .  A
C407        H415   1.083       .  S
C408        C409   1.406       .  A
C408        H416   1.083       .  S
C409        C410   1.416       .  A
C410        C688   1.479       .  S
C410        C411   1.392       .  A
C411        C412   1.389       .  A
C411        H418   1.087       .  S
C412        C748   1.475       .  S
C419       C1448   1.482       .  S
C419        C420   1.389       .  A
C419        C424   1.415       .  A
C420        C421   1.390   1_655  A
C420        H439   1.088       .  S
C421       C1399   1.485       .  S
C421        C422   1.420       .  A
C422        C423   1.428   1_455  A
C422        C429   1.406       .  A
C423        C424   1.428       .  A
C423        C428   1.423       .  A
C424        C425   1.405       .  A
C425        C426   1.400       .  A
C425        H435   1.083       .  S
C426        C427   1.405       .  A
C426        H436   1.083       .  S
C427        C428   1.427       .  A
C427        C434   1.415       .  A
C428        C431   1.428   1_655  A
C429        C430   1.404       .  A
C429        H437   1.083       .  S
C430        C431   1.406       .  A
C430        H438   1.083       .  S
C431        C432   1.421       .  A
C432        C659   1.486       .  S
C432        C433   1.392   1_455  A
C433        C434   1.389       .  A
C433        H440   1.088       .  S
C434        C699   1.484       .  S
C441       C1068   1.476       .  S
C441        C442   1.390       .  A
C441        C446   1.410       .  A
C442        C443   1.395       .  A
C442        H461   1.087       .  S
C443       C1008   1.478       .  S
C443        C444   1.414       .  A
C444        C445   1.422       .  A
C444        C451   1.407       .  A
C445        C446   1.424       .  A
C445        C450   1.417       .  A
C446        C447   1.403       .  A
C447        C448   1.393       .  A
C447        H457   1.083       .  S
C448        C449   1.404       .  A
C448        H458   1.083       .  S
C449        C450   1.422       .  A
C449        C456   1.406       .  A
C450        C453   1.426       .  A
C451        C452   1.400       .  A
C451        H459   1.083       .  S
C452        C453   1.405       .  A
C452        H460   1.083       .  S
C453        C454   1.417       .  A
C454        C888   1.482       .  S
C454        C455   1.391       .  A
C455        C456   1.389       .  A
C455        H462   1.087       .  S
C456        C788   1.471       .  S
C463       C1308   1.483   1_655  S
C463        C464   1.388       .  A
C463        C468   1.417       .  A
C464        C465   1.389       .  A
C464        H483   1.088       .  S
C465       C1348   1.485       .  S
C465        C466   1.419       .  A
C466        C467   1.429       .  A
C466        C473   1.405       .  A
C467        C468   1.428       .  A
C467        C472   1.423       .  A
C468        C469   1.405   1_655  A
C469        C470   1.400       .  A
C469        H479   1.083       .  S
C470        C471   1.405   1_455  A
C470        H480   1.083       .  S
C471        C472   1.428       .  A
C471        C478   1.416       .  A
C472        C475   1.427       .  A
C473        C474   1.402       .  A
C473        H481   1.083       .  S
C474        C475   1.406       .  A
C474        H482   1.083       .  S
C475        C476   1.418       .  A
C476        C799   1.483       .  S
C476        C477   1.392       .  A
C477        C478   1.390       .  A
C477        H484   1.088       .  S
C478        C759   1.484   1_655  S
C485       C1519   1.480       .  S
C485        C486   1.390   1_556  A
C485        C490   1.413       .  A
C486        C487   1.392       .  A
C486        H505   1.087       .  S
C487       C1428   1.485       .  S
C487        C488   1.419       .  A
C488        C489   1.427       .  A
C488        C495   1.407       .  A
C489        C490   1.426   1_554  A
C489        C494   1.421       .  A
C490        C491   1.405       .  A
C491        C492   1.398       .  A
C491        H501   1.083       .  S
C492        C493   1.403       .  A
C492        H502   1.083       .  S
C493        C494   1.427   1_556  A
C493        C500   1.413       .  A
C494        C497   1.426       .  A
C495        C496   1.402       .  A
C495        H503   1.083       .  S
C496        C497   1.405       .  A
C496        H504   1.083       .  S
C497        C498   1.418       .  A
C498        C988   1.481       .  S
C498        C499   1.390       .  A
C499        C500   1.388   1_554  A
C499        H506   1.088       .  S
C500       C1028   1.480       .  S
C507       C1379   1.486       .  S
C507        C508   1.392       .  A
C507        C512   1.419       .  A
C508        C509   1.392       .  A
C508        H527   1.087       .  S
C509       C1328   1.484   1_554  S
C509        C510   1.418       .  A
C510        C511   1.426       .  A
C510        C517   1.407   1_554  A
C511        C512   1.427       .  A
C511        C516   1.423       .  A
C512        C513   1.406       .  A
C513        C514   1.401       .  A
C513        H523   1.083       .  S
C514        C515   1.405       .  A
C514        H524   1.083       .  S
C515        C516   1.427       .  A
C515        C522   1.416       .  A
C516        C519   1.428       .  A
C517        C518   1.402       .  A
C517        H525   1.083       .  S
C518        C519   1.405   1_556  A
C518        H526   1.083       .  S
C519        C520   1.419       .  A
C520       C1128   1.486   1_554  S
C520        C521   1.390       .  A
C521        C522   1.390       .  A
C521        H528   1.088       .  S
C522       C1079   1.483       .  S
C529       C1548   1.480   1_655  S
C529        C530   1.388       .  A
C529        C534   1.413       .  A
C530        C531   1.390       .  A
C530        H549   1.088       .  S
C531       C1488   1.482       .  S
C531        C532   1.415       .  A
C532        C533   1.427       .  A
C532        C539   1.405       .  A
C533        C534   1.426       .  A
C533        C538   1.419       .  A
C534        C535   1.405   1_655  A
C535        C536   1.399       .  A
C535        H545   1.083       .  S
C536        C537   1.405   1_455  A
C536        H546   1.083       .  S
C537        C538   1.426       .  A
C537        C544   1.414       .  A
C538        C541   1.426       .  A
C539        C540   1.400       .  A
C539        H547   1.083       .  S
C540        C541   1.405       .  A
C540        H548   1.083       .  S
C541        C542   1.414       .  A
C542        C848   1.479       .  S
C542        C543   1.392       .  A
C543        C544   1.389       .  A
C543        H550   1.088       .  S
C544        C908   1.480   1_655  S
C551       C1179   1.481       .  S
C551        C552   1.390       .  A
C551        C556   1.414       .  A
C552        C553   1.393       .  A
C552        H571   1.087       .  S
C553       C1148   1.480       .  S
C553        C554   1.416       .  A
C554        C555   1.424       .  A
C554        C561   1.406       .  A
C555        C556   1.426       .  A
C555        C560   1.420       .  A
C556        C557   1.404       .  A
C557        C558   1.397       .  A
C557        H567   1.083       .  S
C558        C559   1.405       .  A
C558        H568   1.083       .  S
C559        C560   1.424       .  A
C559        C566   1.412       .  A
C560        C563   1.427       .  A
C561        C562   1.400       .  A
C561        H569   1.083       .  S
C562        C563   1.405       .  A
C562        H570   1.083       .  S
C563        C564   1.417       .  A
C564        C828   1.483       .  S
C564        C565   1.392       .  A
C565        C566   1.391       .  A
C565        H572   1.087       .  S
C566        C868   1.476       .  S
C573       C1468   1.479       .  S
C573        C574   1.390       .  A
C573        C578   1.413       .  A
C574        C575   1.392       .  A
C574        H593   1.087       .  S
C575       C1508   1.483   1_554  S
C575        C576   1.418       .  A
C576        C577   1.427       .  A
C576        C583   1.406   1_554  A
C577        C578   1.425       .  A
C577        C582   1.420       .  A
C578        C579   1.405       .  A
C579        C580   1.398       .  A
C579        H589   1.083       .  S
C580        C581   1.404       .  A
C580        H590   1.083       .  S
C581        C582   1.425       .  A
C581        C588   1.413       .  A
C582        C585   1.425       .  A
C583        C584   1.401       .  A
C583        H591   1.083       .  S
C584        C585   1.405   1_556  A
C584        H592   1.083       .  S
C585        C586   1.416       .  A
C586       C1168   1.483   1_554  S
C586        C587   1.390       .  A
C587        C588   1.391       .  A
C587        H594   1.088       .  S
C588       C1228   1.478       .  S
C595        C596   1.405       .  A
C595        C600   1.398       .  A
C595        H605   1.082       .  S
C596        C601   1.494       .  S
C596        C597   1.411       .  A
C597        C598   1.403       .  A
C597        H602   1.082       .  S
C598        C599   1.402       .  A
C598        H603   1.083       .  S
C599        C600   1.403       .  A
C600        H604   1.084       .  S
C601        C606   1.407       .  A
C601        C610   1.407       .  A
C606        C607   1.401       .  A
C606        H611   1.082       .  S
C607        C608   1.406       .  A
C607        H612   1.083       .  S
C608        C609   1.406       .  A
C609        C610   1.401       .  A
C609        H613   1.084       .  S
C610        H614   1.083       .  S
C615        C616   1.399       .  A
C615        C620   1.391       .  A
C615        H625   1.083       .  S
C616        C621   1.477       .  S
C616        C617   1.408       .  A
C617        C618   1.400       .  A
C617        H622   1.083       .  S
C618        C619   1.403       .  A
C618        H623   1.083       .  S
C619        C620   1.407       .  A
C620        H624   1.083       .  S
C621        C626   1.406       .  A
C621        C630   1.403       .  A
C626        C627   1.396       .  A
C626        H631   1.083       .  S
C627        C628   1.401       .  A
C627        H632   1.084       .  S
C628        C629   1.403       .  A
C629        C630   1.395       .  A
C629        H633   1.083       .  S
C630        H634   1.083       .  S
C635        C636   1.401       .  A
C635        C640   1.398       .  A
C635        H645   1.083   1_545  S
C636        C641   1.488       .  S
C636        C637   1.410       .  A
C637        C638   1.404       .  A
C637        H642   1.083       .  S
C638        C639   1.403       .  A
C638        H643   1.083       .  S
C639        C640   1.410       .  A
C640        H644   1.083   1_545  S
C641        C646   1.404       .  A
C641        C650   1.408       .  A
C646        C647   1.399       .  A
C646        H651   1.083       .  S
C647        C648   1.406       .  A
C647        H652   1.083       .  S
C648        C649   1.403       .  A
C649        C650   1.401       .  A
C649        H653   1.083       .  S
C650        H654   1.083       .  S
C655        C656   1.407       .  A
C655        C660   1.406       .  A
C655        H665   1.083       .  S
C656        C661   1.500       .  S
C656        C657   1.408       .  A
C657        C658   1.402       .  A
C657        H662   1.083       .  S
C658        C659   1.405       .  A
C658        H663   1.084       .  S
C659        C660   1.410       .  A
C660        H664   1.083       .  S
C661        C666   1.410       .  A
C661        C670   1.407       .  A
C666        C667   1.403       .  A
C666        H671   1.083       .  S
C667        C668   1.402       .  A
C667        H672   1.083       .  S
C668        C669   1.407       .  A
C669        C670   1.406       .  A
C669        H673   1.083       .  S
C670        H674   1.083       .  S
C675        C676   1.410       .  A
C675        C680   1.404       .  A
C675        H685   1.083       .  S
C676        C681   1.487       .  S
C676        C677   1.400       .  A
C677        C678   1.396   1_545  A
C677        H682   1.083   1_545  S
C678        C679   1.410   1_565  A
C678        H683   1.083       .  S
C679        C680   1.405       .  A
C680        H684   1.083       .  S
C681        C686   1.404       .  A
C681        C690   1.407       .  A
C686        C687   1.399       .  A
C686        H691   1.083       .  S
C687        C688   1.406       .  A
C687        H692   1.083       .  S
C688        C689   1.403       .  A
C689        C690   1.400       .  A
C689        H693   1.083       .  S
C690        H694   1.083       .  S
C695        C696   1.406       .  A
C695        C700   1.401       .  A
C695        H705   1.083       .  S
C696        C701   1.493       .  S
C696        C697   1.406       .  A
C697        C698   1.403       .  A
C697        H702   1.083       .  S
C698        C699   1.407       .  A
C698        H703   1.083       .  S
C699        C700   1.406       .  A
C700        H704   1.084       .  S
C701        C706   1.410       .  A
C701        C710   1.404       .  A
C706        C707   1.404       .  A
C706        H711   1.083       .  S
C707        C708   1.403       .  A
C707        H712   1.083       .  S
C708        C709   1.407       .  A
C709        C710   1.401       .  A
C709        H713   1.083       .  S
C710        H714   1.083       .  S
C715        C716   1.408       .  A
C715        C720   1.403       .  A
C715        H725   1.083       .  S
C716        C721   1.497       .  S
C716        C717   1.406       .  A
C717        C718   1.408       .  A
C717        H722   1.083       .  S
C718        C719   1.409       .  A
C718        H723   1.083       .  S
C719        C720   1.403       .  A
C720        H724   1.083       .  S
C721        C726   1.405       .  A
C721        C730   1.407       .  A
C726        C727   1.407       .  A
C726        H731   1.083       .  S
C727        C728   1.412       .  A
C727        H732   1.083       .  S
C728        C729   1.405       .  A
C729        C730   1.403       .  A
C729        H733   1.083       .  S
C730        H734   1.083       .  S
C735        C736   1.407       .  A
C735        C740   1.401       .  A
C735        H745   1.083       .  S
C736        C741   1.477       .  S
C736        C737   1.398       .  A
C737        C738   1.395       .  A
C737        H742   1.083       .  S
C738        C739   1.409       .  A
C738        H743   1.083       .  S
C739        C740   1.405       .  A
C740        H744   1.083       .  S
C741        C746   1.402       .  A
C741        C750   1.405       .  A
C746        C747   1.396       .  A
C746        H751   1.083       .  S
C747        C748   1.404       .  A
C747        H752   1.083       .  S
C748        C749   1.403       .  A
C749        C750   1.399       .  A
C749        H753   1.083       .  S
C750        H754   1.083       .  S
C755        C756   1.404       .  A
C755        C760   1.405       .  A
C755        H765   1.083       .  S
C756        C761   1.488       .  S
C756        C757   1.405       .  A
C757        C758   1.399       .  A
C757        H762   1.083       .  S
C758        C759   1.405       .  A
C758        H763   1.084       .  S
C759        C760   1.408       .  A
C760        H764   1.083       .  S
C761        C766   1.409       .  A
C761        C770   1.402       .  A
C766        C767   1.401       .  A
C766        H771   1.083   1_455  S
C767        C768   1.401       .  A
C767        H772   1.083       .  S
C768        C769   1.409       .  A
C769        C770   1.402       .  A
C769        H773   1.084       .  S
C770        H774   1.083       .  S
C775        C776   1.408       .  A
C775        C780   1.400       .  A
C775        H785   1.083       .  S
C776        C781   1.478       .  S
C776        C777   1.399       .  A
C777        C778   1.396       .  A
C777        H782   1.083       .  S
C778        C779   1.409       .  A
C778        H783   1.083       .  S
C779        C780   1.403       .  A
C780        H784   1.083       .  S
C781        C786   1.403       .  A
C781        C790   1.405       .  A
C786        C787   1.394       .  A
C786        H791   1.083       .  S
C787        C788   1.403       .  A
C787        H792   1.084       .  S
C788        C789   1.402       .  A
C789        C790   1.398       .  A
C789        H793   1.083       .  S
C790        H794   1.083       .  S
C795        C796   1.406       .  A
C795        C800   1.404       .  A
C795        H805   1.083       .  S
C796        C801   1.492       .  S
C796        C797   1.406       .  A
C797        C798   1.400       .  A
C797        H802   1.083       .  S
C798        C799   1.405       .  A
C798        H803   1.084       .  S
C799        C800   1.408       .  A
C800        H804   1.083       .  S
C801        C806   1.410       .  A
C801        C810   1.403       .  A
C806        C807   1.404       .  A
C806        H811   1.083       .  S
C807        C808   1.403       .  A
C807        H812   1.083       .  S
C808        C809   1.407       .  A
C809        C810   1.401       .  A
C809        H813   1.083       .  S
C810        H814   1.083       .  S
C815        C816   1.400       .  A
C815        C820   1.397       .  A
C815        H825   1.083       .  S
C816        C821   1.488       .  S
C816        C817   1.410       .  A
C817        C818   1.405       .  A
C817        H822   1.083       .  S
C818        C819   1.404       .  A
C818        H823   1.083       .  S
C819        C820   1.412       .  A
C820        H824   1.083       .  S
C821        C826   1.409       .  A
C821        C830   1.403       .  A
C826        C827   1.403       .  A
C826        H831   1.083       .  S
C827        C828   1.403       .  A
C827        H832   1.083       .  S
C828        C829   1.407       .  A
C829        C830   1.398       .  A
C829        H833   1.084       .  S
C830        H834   1.083       .  S
C835        C836   1.410       .  A
C835        C840   1.400       .  A
C835        H845   1.083       .  S
C836        C841   1.491       .  S
C836        C837   1.405       .  A
C837        C838   1.400       .  A
C837        H842   1.083       .  S
C838        C839   1.404       .  A
C838        H843   1.083       .  S
C839        C840   1.402       .  A
C840        H844   1.084       .  S
C841        C846   1.406       .  A
C841        C850   1.407       .  A
C846        C847   1.401       .  A
C846        H851   1.083       .  S
C847        C848   1.407       .  A
C847        H852   1.083       .  S
C848        C849   1.404       .  A
C849        C850   1.400       .  A
C849        H853   1.084       .  S
C850        H854   1.083       .  S
C855        C856   1.399       .  A
C855        C860   1.393       .  A
C855        H865   1.083   1_545  S
C856        C861   1.481       .  S
C856        C857   1.410       .  A
C857        C858   1.403       .  A
C857        H862   1.083       .  S
C858        C859   1.403       .  A
C858        H863   1.083       .  S
C859        C860   1.409       .  A
C860        H864   1.083   1_545  S
C861        C866   1.407       .  A
C861        C870   1.403       .  A
C866        C867   1.399       .  A
C866        H871   1.083       .  S
C867        C868   1.402       .  A
C867        H872   1.083       .  S
C868        C869   1.405       .  A
C869        C870   1.397       .  A
C869        H873   1.083       .  S
C870        H874   1.083       .  S
C875        C876   1.399       .  A
C875        C880   1.396       .  A
C875        H885   1.083   1_545  S
C876        C881   1.484       .  S
C876        C877   1.408       .  A
C877        C878   1.404       .  A
C877        H882   1.083       .  S
C878        C879   1.407       .  A
C878        H883   1.083       .  S
C879        C880   1.410       .  A
C880        H884   1.083   1_545  S
C881        C886   1.407       .  A
C881        C890   1.402       .  A
C886        C887   1.402       .  A
C886        H891   1.083       .  S
C887        C888   1.403       .  A
C887        H892   1.083       .  S
C888        C889   1.408       .  A
C889        C890   1.399       .  A
C889        H893   1.083       .  S
C890        H894   1.083       .  S
C895        C896   1.410       .  A
C895        C900   1.403       .  A
C895        H905   1.083   1_455  S
C896        C901   1.487       .  S
C896        C897   1.402       .  A
C897        C898   1.399       .  A
C897        H902   1.083       .  S
C898        C899   1.407       .  A
C898        H903   1.083       .  S
C899        C900   1.403       .  A
C900        H904   1.083       .  S
C901        C906   1.405       .  A
C901        C910   1.405       .  A
C906        C907   1.399       .  A
C906        H911   1.083       .  S
C907        C908   1.405       .  A
C907        H912   1.084       .  S
C908        C909   1.406       .  A
C909        C910   1.402       .  A
C909        H913   1.083       .  S
C910        H914   1.083       .  S
C915        C916   1.408       .  A
C915        C920   1.401       .  A
C915        H925   1.083       .  S
C916        C921   1.487       .  S
C916        C917   1.404       .  A
C917        C918   1.397       .  A
C917        H922   1.083       .  S
C918        C919   1.406       .  A
C918        H923   1.084       .  S
C919        C920   1.403       .  A
C920        H924   1.083       .  S
C921        C926   1.401       .  A
C921        C930   1.411       .  A
C926        C927   1.396       .  A
C926        H931   1.083       .  S
C927        C928   1.410       .  A
C927        H932   1.083       .  S
C928        C929   1.403       .  A
C929        C930   1.403       .  A
C929        H933   1.083       .  S
C930        H934   1.083       .  S
C935        C936   1.406       .  A
C935        C940   1.403       .  A
C935        H945   1.083       .  S
C936        C941   1.488       .  S
C936        C937   1.405       .  A
C937        C938   1.398       .  A
C937        H942   1.083       .  S
C938        C939   1.405       .  A
C938        H943   1.084       .  S
C939        C940   1.406       .  A
C940        H944   1.083       .  S
C941        C946   1.410       .  A
C941        C950   1.402       .  A
C946        C947   1.403       .  A
C946        H951   1.081       .  S
C947        C948   1.401       .  A
C947        H952   1.083       .  S
C948        C949   1.408       .  A
C949        C950   1.399       .  A
C949        H953   1.084       .  S
C950        H954   1.083       .  S
C955        C956   1.400       .  A
C955        C960   1.396       .  A
C955        H965   1.083   1_545  S
C956        C961   1.479       .  S
C956        C957   1.407       .  A
C957        C958   1.400       .  A
C957        H962   1.083       .  S
C958        C959   1.404       .  A
C958        H963   1.083       .  S
C959        C960   1.409       .  A
C960        H964   1.083   1_545  S
C961        C966   1.406       .  A
C961        C970   1.403       .  A
C966        C967   1.398       .  A
C966        H971   1.083       .  S
C967        C968   1.402       .  A
C967        H972   1.083       .  S
C968        C969   1.405       .  A
C969        C970   1.396       .  A
C969        H973   1.084       .  S
C970        H974   1.083       .  S
C975        C976   1.409       .  A
C975        C980   1.403       .  A
C975        H985   1.083       .  S
C976        C981   1.485       .  S
C976        C977   1.401       .  A
C977        C978   1.399       .  A
C977        H982   1.083       .  S
C978        C979   1.406       .  A
C978        H983   1.083       .  S
C979        C980   1.402       .  A
C980        H984   1.083       .  S
C981        C986   1.404       .  A
C981        C990   1.404       .  A
C986        C987   1.399       .  A
C986        H991   1.083       .  S
C987        C988   1.406       .  A
C987        H992   1.084       .  S
C988        C989   1.409       .  A
C989        C990   1.404       .  A
C989        H993   1.083       .  S
C990        H994   1.083       .  S
C995        C996   1.409       .  A
C995       C1000   1.403       .  A
C995       H1005   1.083       .  S
C996       C1001   1.481       .  S
C996        C997   1.398       .  A
C997        C998   1.394       .  A
C997       H1002   1.083   1_545  S
C998        C999   1.410       .  A
C998       H1003   1.083   1_545  S
C999       C1000   1.404       .  A
C1000      H1004   1.083       .  S
C1001      C1006   1.406       .  A
C1001      C1010   1.403       .  A
C1006      C1007   1.399       .  A
C1006      H1011   1.083       .  S
C1007      C1008   1.403       .  A
C1007      H1012   1.084       .  S
C1008      C1009   1.405       .  A
C1009      C1010   1.397       .  A
C1009      H1013   1.083       .  S
C1010      H1014   1.083       .  S
C1015      C1016   1.412       .  A
C1015      C1020   1.403       .  A
C1015      H1025   1.083       .  S
C1016      C1021   1.495       .  S
C1016      C1017   1.405       .  A
C1017      C1018   1.400       .  A
C1017      H1022   1.083       .  S
C1018      C1019   1.406       .  A
C1018      H1023   1.084       .  S
C1019      C1020   1.402       .  A
C1020      H1024   1.083       .  S
C1021      C1026   1.408       .  A
C1021      C1030   1.407       .  A
C1026      C1027   1.402       .  A
C1026      H1031   1.082       .  S
C1027      C1028   1.405       .  A
C1027      H1032   1.083       .  S
C1028      C1029   1.405       .  A
C1029      C1030   1.400       .  A
C1029      H1033   1.084       .  S
C1030      H1034   1.083       .  S
C1035      C1036   1.410       .  A
C1035      C1040   1.405       .  A
C1035      H1045   1.082   1_556  S
C1036      C1041   1.489       .  S
C1036      C1037   1.401       .  A
C1037      C1038   1.400       .  A
C1037      H1042   1.083       .  S
C1038      C1039   1.409       .  A
C1038      H1043   1.083       .  S
C1039      C1040   1.403       .  A
C1040      H1044   1.083       .  S
C1041      C1046   1.405       .  A
C1041      C1050   1.406       .  A
C1046      C1047   1.400       .  A
C1046      H1051   1.083       .  S
C1047      C1048   1.406       .  A
C1047      H1052   1.084       .  S
C1048      C1049   1.407       .  A
C1049      C1050   1.404       .  A
C1049      H1053   1.083       .  S
C1050      H1054   1.083       .  S
C1055      C1056   1.400       .  A
C1055      C1060   1.398       .  A
C1055      H1065   1.083       .  S
C1056      C1061   1.475       .  S
C1056      C1057   1.405       .  A
C1057      C1058   1.398       .  A
C1057      H1062   1.083       .  S
C1058      C1059   1.403       .  A
C1058      H1063   1.083       .  S
C1059      C1060   1.409       .  A
C1060      H1064   1.083       .  S
C1061      C1066   1.403       .  A
C1061      C1070   1.402       .  A
C1066      C1067   1.400       .  A
C1066      H1071   1.083       .  S
C1067      C1068   1.405       .  A
C1067      H1072   1.083       .  S
C1068      C1069   1.402       .  A
C1069      C1070   1.396       .  A
C1069      H1073   1.083       .  S
C1070      H1074   1.083       .  S
C1075      C1076   1.406       .  A
C1075      C1080   1.405       .  A
C1075      H1085   1.083       .  S
C1076      C1081   1.491       .  S
C1076      C1077   1.405       .  A
C1077      C1078   1.399       .  A
C1077      H1082   1.083       .  S
C1078      C1079   1.405       .  A
C1078      H1083   1.084       .  S
C1079      C1080   1.408       .  A
C1080      H1084   1.083       .  S
C1081      C1086   1.410       .  A
C1081      C1090   1.404       .  A
C1086      C1087   1.402       .  A
C1086      H1091   1.083       .  S
C1087      C1088   1.401       .  A
C1087      H1092   1.083       .  S
C1088      C1089   1.406       .  A
C1089      C1090   1.401       .  A
C1089      H1093   1.083       .  S
C1090      H1094   1.083       .  S
C1095      C1096   1.405       .  A
C1095      C1100   1.399       .  A
C1095      H1105   1.083       .  S
C1096      C1101   1.477       .  S
C1096      C1097   1.403       .  A
C1097      C1098   1.394       .  A
C1097      H1102   1.083       .  S
C1098      C1099   1.403       .  A
C1098      H1103   1.083       .  S
C1099      C1100   1.403       .  A
C1100      H1104   1.083       .  S
C1101      C1106   1.400       .  A
C1101      C1110   1.406       .  A
C1106      C1107   1.397       .  A
C1106      H1111   1.083       .  S
C1107      C1108   1.407       .  A
C1107      H1112   1.083       .  S
C1108      C1109   1.403       .  A
C1109      C1110   1.398       .  A
C1109      H1113   1.083       .  S
C1110      H1114   1.083       .  S
C1115      C1116   1.411       .  A
C1115      C1120   1.404       .  A
C1115      H1125   1.082       .  S
C1116      C1121   1.499       .  S
C1116      C1117   1.407       .  A
C1117      C1118   1.404       .  A
C1117      H1122   1.083       .  S
C1118      C1119   1.407       .  A
C1118      H1123   1.083       .  S
C1119      C1120   1.402       .  A
C1120      H1124   1.083       .  S
C1121      C1126   1.408       .  A
C1121      C1130   1.408       .  A
C1126      C1127   1.402       .  A
C1126      H1131   1.083       .  S
C1127      C1128   1.406       .  A
C1127      H1132   1.084       .  S
C1128      C1129   1.408       .  A
C1129      C1130   1.405       .  A
C1129      H1133   1.083       .  S
C1130      H1134   1.083       .  S
C1135      C1136   1.407       .  A
C1135      C1140   1.403       .  A
C1135      H1145   1.083       .  S
C1136      C1141   1.479       .  S
C1136      C1137   1.398       .  A
C1137      C1138   1.397       .  A
C1137      H1142   1.083       .  S
C1138      C1139   1.411       .  A
C1138      H1143   1.083       .  S
C1139      C1140   1.406       .  A
C1140      H1144   1.083       .  S
C1141      C1146   1.402       .  A
C1141      C1150   1.405       .  A
C1146      C1147   1.398       .  A
C1146      H1151   1.083       .  S
C1147      C1148   1.407       .  A
C1147      H1152   1.083       .  S
C1148      C1149   1.404       .  A
C1149      C1150   1.400       .  A
C1149      H1153   1.083       .  S
C1150      H1154   1.083       .  S
C1155      C1156   1.410       .  A
C1155      C1160   1.404       .  A
C1155      H1165   1.083   1_556  S
C1156      C1161   1.490       .  S
C1156      C1157   1.403       .  A
C1157      C1158   1.401       .  A
C1157      H1162   1.083       .  S
C1158      C1159   1.406       .  A
C1158      H1163   1.083       .  S
C1159      C1160   1.403       .  A
C1160      H1164   1.083       .  S
C1161      C1166   1.405       .  A
C1161      C1170   1.406       .  A
C1166      C1167   1.400       .  A
C1166      H1171   1.083       .  S
C1167      C1168   1.406       .  A
C1167      H1172   1.084       .  S
C1168      C1169   1.408       .  A
C1169      C1170   1.403       .  A
C1169      H1173   1.083       .  S
C1170      H1174   1.083       .  S
C1175      C1176   1.405       .  A
C1175      C1180   1.401       .  A
C1175      H1185   1.083       .  S
C1176      C1181   1.482       .  S
C1176      C1177   1.403       .  A
C1177      C1178   1.400       .  A
C1177      H1182   1.083       .  S
C1178      C1179   1.405       .  A
C1178      H1183   1.083       .  S
C1179      C1180   1.404       .  A
C1180      H1184   1.083       .  S
C1181      C1186   1.400       .  A
C1181      C1190   1.407       .  A
C1186      C1187   1.398       .  A
C1186      H1191   1.083   1_545  S
C1187      C1188   1.410       .  A
C1187      H1192   1.083   1_545  S
C1188      C1189   1.405       .  A
C1189      C1190   1.402       .  A
C1189      H1193   1.083       .  S
C1190      H1194   1.083       .  S
C1195      C1196   1.399       .  A
C1195      C1200   1.395   1_545  A
C1195      H1205   1.083   1_545  S
C1196      C1201   1.488       .  S
C1196      C1197   1.411       .  A
C1197      C1198   1.407       .  A
C1197      H1202   1.083       .  S
C1198      C1199   1.405       .  A
C1198      H1203   1.083       .  S
C1199      C1200   1.412   1_545  A
C1200      H1204   1.083       .  S
C1201      C1206   1.403       .  A
C1201      C1210   1.408       .  A
C1206      C1207   1.400       .  A
C1206      H1211   1.083       .  S
C1207      C1208   1.408       .  A
C1207      H1212   1.083       .  S
C1208      C1209   1.404       .  A
C1209      C1210   1.402       .  A
C1209      H1213   1.083       .  S
C1210      H1214   1.083       .  S
C1215      C1216   1.410       .  A
C1215      C1220   1.403       .  A
C1215      H1225   1.083       .  S
C1216      C1221   1.486       .  S
C1216      C1217   1.401       .  A
C1217      C1218   1.397       .  A
C1217      H1222   1.083       .  S
C1218      C1219   1.408       .  A
C1218      H1223   1.084       .  S
C1219      C1220   1.402       .  A
C1220      H1224   1.083       .  S
C1221      C1226   1.405       .  A
C1221      C1230   1.405       .  A
C1226      C1227   1.401       .  A
C1226      H1231   1.083       .  S
C1227      C1228   1.406       .  A
C1227      H1232   1.083       .  S
C1228      C1229   1.404       .  A
C1229      C1230   1.398       .  A
C1229      H1233   1.084       .  S
C1230      H1234   1.083       .  S
C1235      C1236   1.407       .  A
C1235      C1240   1.404       .  A
C1235      H1245   1.082       .  S
C1236      C1241   1.499       .  S
C1236      C1237   1.410       .  A
C1237      C1238   1.402       .  A
C1237      H1242   1.082       .  S
C1238      C1239   1.402       .  A
C1238      H1243   1.083       .  S
C1239      C1240   1.406       .  A
C1240      H1244   1.083       .  S
C1241      C1246   1.409       .  A
C1241      C1250   1.407       .  A
C1246      C1247   1.402       .  A
C1246      H1251   1.083       .  S
C1247      C1248   1.404       .  A
C1247      H1252   1.083       .  S
C1248      C1249   1.410       .  A
C1249      C1250   1.404       .  A
C1249      H1253   1.083       .  S
C1250      H1254   1.082       .  S
C1255      C1256   1.408       .  A
C1255      C1260   1.403       .  A
C1255      H1265   1.083       .  S
C1256      C1261   1.482       .  S
C1256      C1257   1.399       .  A
C1257      C1258   1.396       .  A
C1257      H1262   1.083       .  S
C1258      C1259   1.411       .  A
C1258      H1263   1.083       .  S
C1259      C1260   1.404       .  A
C1260      H1264   1.083       .  S
C1261      C1266   1.406       .  A
C1261      C1270   1.402       .  A
C1266      C1267   1.401       .  A
C1266      H1271   1.083       .  S
C1267      C1268   1.403       .  A
C1267      H1272   1.083       .  S
C1268      C1269   1.406       .  A
C1269      C1270   1.398       .  A
C1269      H1273   1.083       .  S
C1270      H1274   1.083       .  S
C1275      C1276   1.398       .  A
C1275      C1280   1.397       .  A
C1275      H1285   1.083       .  S
C1276      C1281   1.484       .  S
C1276      C1277   1.409       .  A
C1277      C1278   1.405       .  A
C1277      H1282   1.083       .  S
C1278      C1279   1.405       .  A
C1278      H1283   1.083       .  S
C1279      C1280   1.413       .  A
C1280      H1284   1.083       .  S
C1281      C1286   1.407       .  A
C1281      C1290   1.402       .  A
C1286      C1287   1.403       .  A
C1286      H1291   1.083       .  S
C1287      C1288   1.404       .  A
C1287      H1292   1.083       .  S
C1288      C1289   1.407       .  A
C1289      C1290   1.399       .  A
C1289      H1293   1.083       .  S
C1290      H1294   1.083       .  S
C1295      C1296   1.403       .  A
C1295      C1300   1.401       .  A
C1295      H1305   1.083       .  S
C1296      C1301   1.492       .  S
C1296      C1297   1.410       .  A
C1297      C1298   1.406       .  A
C1297      H1302   1.083   1_455  S
C1298      C1299   1.404       .  A
C1298      H1303   1.083       .  S
C1299      C1300   1.408       .  A
C1300      H1304   1.083       .  S
C1301      C1306   1.405       .  A
C1301      C1310   1.406       .  A
C1306      C1307   1.403       .  A
C1306      H1311   1.083       .  S
C1307      C1308   1.409       .  A
C1307      H1312   1.083       .  S
C1308      C1309   1.406       .  A
C1309      C1310   1.402       .  A
C1309      H1313   1.083       .  S
C1310      H1314   1.083       .  S
C1315      C1316   1.399       .  A
C1315      C1320   1.394       .  A
C1315      H1325   1.083       .  S
C1316      C1321   1.486       .  S
C1316      C1317   1.410       .  A
C1317      C1318   1.405       .  A
C1317      H1322   1.083       .  S
C1318      C1319   1.405       .  A
C1318      H1323   1.083       .  S
C1319      C1320   1.410       .  A
C1320      H1324   1.083       .  S
C1321      C1326   1.403       .  A
C1321      C1330   1.407       .  A
C1326      C1327   1.400       .  A
C1326      H1331   1.083       .  S
C1327      C1328   1.408       .  A
C1327      H1332   1.083       .  S
C1328      C1329   1.404       .  A
C1329      C1330   1.401       .  A
C1329      H1333   1.083       .  S
C1330      H1334   1.083       .  S
C1335      C1336   1.410       .  A
C1335      C1340   1.407       .  A
C1335      H1345   1.083       .  S
C1336      C1341   1.495       .  S
C1336      C1337   1.403       .  A
C1337      C1338   1.403       .  A
C1337      H1342   1.083       .  S
C1338      C1339   1.409       .  A
C1338      H1343   1.083       .  S
C1339      C1340   1.404       .  A
C1340      H1344   1.083       .  S
C1341      C1346   1.406       .  A
C1341      C1350   1.405       .  A
C1346      C1347   1.403       .  A
C1346      H1351   1.083       .  S
C1347      C1348   1.406       .  A
C1347      H1352   1.083       .  S
C1348      C1349   1.410       .  A
C1349      C1350   1.405       .  A
C1349      H1353   1.083       .  S
C1350      H1354   1.083       .  S
C1355      C1356   1.410       .  A
C1355      C1360   1.404       .  A
C1355      H1365   1.082       .  S
C1356      C1361   1.494       .  S
C1356      C1357   1.404       .  A
C1357      C1358   1.402       .  A
C1357      H1362   1.083       .  S
C1358      C1359   1.407       .  A
C1358      H1363   1.083       .  S
C1359      C1360   1.403       .  A
C1360      H1364   1.083       .  S
C1361      C1366   1.406       .  A
C1361      C1370   1.406       .  A
C1366      C1367   1.401       .  A
C1366      H1371   1.083       .  S
C1367      C1368   1.405       .  A
C1367      H1372   1.084       .  S
C1368      C1369   1.409       .  A
C1369      C1370   1.404       .  A
C1369      H1373   1.083       .  S
C1370      H1374   1.083       .  S
C1375      C1376   1.404       .  A
C1375      C1380   1.401       .  A
C1375      H1385   1.083       .  S
C1376      C1381   1.489       .  S
C1376      C1377   1.407       .  A
C1377      C1378   1.402       .  A
C1377      H1382   1.083       .  S
C1378      C1379   1.404       .  A
C1378      H1383   1.083       .  S
C1379      C1380   1.408       .  A
C1380      H1384   1.083       .  S
C1381      C1386   1.409       .  A
C1381      C1390   1.400       .  A
C1386      C1387   1.406       .  A
C1386      H1391   1.083       .  S
C1387      C1388   1.406       .  A
C1387      H1392   1.083       .  S
C1388      C1389   1.412       .  A
C1389      C1390   1.399       .  A
C1389      H1393   1.083       .  S
C1390      H1394   1.083       .  S
C1395      C1396   1.405       .  A
C1395      C1400   1.405       .  A
C1395      H1405   1.083       .  S
C1396      C1401   1.492       .  S
C1396      C1397   1.406       .  A
C1397      C1398   1.402       .  A
C1397      H1402   1.083       .  S
C1398      C1399   1.407       .  A
C1398      H1403   1.084       .  S
C1399      C1400   1.409       .  A
C1400      H1404   1.083       .  S
C1401      C1406   1.403       .  A
C1401      C1410   1.410       .  A
C1406      C1407   1.402       .  A
C1406      H1411   1.083       .  S
C1407      C1408   1.409       .  A
C1407      H1412   1.083       .  S
C1408      C1409   1.403       .  A
C1409      C1410   1.404       .  A
C1409      H1413   1.083       .  S
C1410      H1414   1.083       .  S
C1415      C1416   1.401       .  A
C1415      C1420   1.396       .  A
C1415      H1425   1.083       .  S
C1416      C1421   1.493       .  S
C1416      C1417   1.412       .  A
C1417      C1418   1.408       .  A
C1417      H1422   1.083       .  S
C1418      C1419   1.405       .  A
C1418      H1423   1.083       .  S
C1419      C1420   1.411       .  A
C1420      H1424   1.083       .  S
C1421      C1426   1.410       .  A
C1421      C1430   1.404       .  A
C1426      C1427   1.403       .  A
C1426      H1431   1.083       .  S
C1427      C1428   1.403       .  A
C1427      H1432   1.083       .  S
C1428      C1429   1.409       .  A
C1429      C1430   1.400       .  A
C1429      H1433   1.083       .  S
C1430      H1434   1.083       .  S
C1435      C1436   1.404       .  A
C1435      C1440   1.402       .  A
C1435      H1445   1.083       .  S
C1436      C1441   1.489       .  S
C1436      C1437   1.409       .  A
C1437      C1438   1.401       .  A
C1437      H1442   1.083       .  S
C1438      C1439   1.402       .  A
C1438      H1443   1.083       .  S
C1439      C1440   1.406       .  A
C1440      H1444   1.083       .  S
C1441      C1446   1.406       .  A
C1441      C1450   1.405       .  A
C1446      C1447   1.400       .  A
C1446      H1451   1.083       .  S
C1447      C1448   1.405       .  A
C1447      H1452   1.084       .  S
C1448      C1449   1.408       .  A
C1449      C1450   1.403       .  A
C1449      H1453   1.083       .  S
C1450      H1454   1.083       .  S
C1455      C1456   1.401       .  A
C1455      C1460   1.399       .  A
C1455      H1465   1.083       .  S
C1456      C1461   1.484       .  S
C1456      C1457   1.408       .  A
C1457      C1458   1.402       .  A
C1457      H1462   1.083       .  S
C1458      C1459   1.404       .  A
C1458      H1463   1.083       .  S
C1459      C1460   1.409       .  A
C1460      H1464   1.083       .  S
C1461      C1466   1.405       .  A
C1461      C1470   1.404       .  A
C1466      C1467   1.400       .  A
C1466      H1471   1.083       .  S
C1467      C1468   1.404       .  A
C1467      H1472   1.083       .  S
C1468      C1469   1.405       .  A
C1469      C1470   1.399       .  A
C1469      H1473   1.083       .  S
C1470      H1474   1.083       .  S
C1475      C1476   1.411       .  A
C1475      C1480   1.403       .  A
C1475      H1485   1.083       .  S
C1476      C1481   1.495       .  S
C1476      C1477   1.405       .  A
C1477      C1478   1.402       .  A
C1477      H1482   1.083       .  S
C1478      C1479   1.406       .  A
C1478      H1483   1.083       .  S
C1479      C1480   1.403       .  A
C1480      H1484   1.083       .  S
C1481      C1486   1.408       .  A
C1481      C1490   1.407       .  A
C1486      C1487   1.401       .  A
C1486      H1491   1.083       .  S
C1487      C1488   1.404       .  A
C1487      H1492   1.084       .  S
C1488      C1489   1.408       .  A
C1489      C1490   1.403       .  A
C1489      H1493   1.083       .  S
C1490      H1494   1.083       .  S
C1495      C1496   1.410       .  A
C1495      C1500   1.407       .  A
C1495      H1505   1.083       .  S
C1496      C1501   1.487       .  S
C1496      C1497   1.399       .  A
C1497      C1498   1.396       .  A
C1497      H1502   1.083       .  S
C1498      C1499   1.411       .  A
C1498      H1503   1.083       .  S
C1499      C1500   1.407       .  A
C1500      H1504   1.083       .  S
C1501      C1506   1.402       .  A
C1501      C1510   1.408       .  A
C1506      C1507   1.400       .  A
C1506      H1511   1.083       .  S
C1507      C1508   1.408       .  A
C1507      H1512   1.084   1_556  S
C1508      C1509   1.403       .  A
C1509      C1510   1.403       .  A
C1509      H1513   1.083       .  S
C1510      H1514   1.083       .  S
C1515      C1516   1.407       .  A
C1515      C1520   1.401       .  A
C1515      H1525   1.083       .  S
C1516      C1521   1.483       .  S
C1516      C1517   1.402       .  A
C1517      C1518   1.398       .  A
C1517      H1522   1.083       .  S
C1518      C1519   1.406       .  A
C1518      H1523   1.083       .  S
C1519      C1520   1.403       .  A
C1520      H1524   1.083       .  S
C1521      C1526   1.410       .  A
C1521      C1530   1.398       .  A
C1526      C1527   1.405       .  A
C1526      H1531   1.083       .  S
C1527      C1528   1.405       .  A
C1527      H1532   1.083       .  S
C1528      C1529   1.411       .  A
C1529      C1530   1.394       .  A
C1529      H1533   1.083       .  S
C1530      H1534   1.083       .  S
C1535      C1536   1.411       .  A
C1535      C1540   1.404       .  A
C1535      H1545   1.083   1_455  S
C1536      C1541   1.490       .  S
C1536      C1537   1.403       .  A
C1537      C1538   1.399       .  A
C1537      H1542   1.083       .  S
C1538      C1539   1.407       .  A
C1538      H1543   1.084       .  S
C1539      C1540   1.402       .  A
C1540      H1544   1.083   1_455  S
C1541      C1546   1.406       .  A
C1541      C1550   1.405       .  A
C1546      C1547   1.403       .  A
C1546      H1551   1.083       .  S
C1547      C1548   1.406       .  A
C1547      H1552   1.083       .  S
C1548      C1549   1.405       .  A
C1549      C1550   1.399       .  A
C1549      H1553   1.084       .  S
C1550      H1554   1.083       .  S
