geometry optimzed in LAMMPS
_audit_creation_date              2020-12-01 
_audit_creation_method            'lammps2cif' 
_symmetry_space_group_name_H-M    'P1' 
_symmetry_Int_Tables_number       1 
_symmetry_cell_setting            triclinic 
loop_ 
_symmetry_equiv_pos_as_xyz 
  x,y,z 
_cell_length_a                    29.88027033 
_cell_length_b                    30.033859110802855 
_cell_length_c                    96.01464568893553 
_cell_angle_alpha                 90.0134494982229 
_cell_angle_beta                  90.31534501313905 
_cell_angle_gamma                 120.0326325184977 
loop_ 
_atom_site_label 
_atom_site_type_symbol 
_atom_site_fract_x 
_atom_site_fract_y 
_atom_site_fract_z 
_atom_site_charge 
In1        In  0.77239654  0.83653795  0.38156704     1.36900
C2          C  0.81895676  0.93775851  0.38291486     0.77600
O3          O  0.83691189  0.84523922  0.39509687    -0.60800
O4          O  0.83453532  0.82112267  0.37424550    -0.51700
C5          C  0.71042120  0.75379388  0.39645031     0.70300
O6          O  0.72283436  0.79877926  0.40040858    -0.46600
C7          C  0.71713056  0.83204910  0.35952597     0.75000
O8          O  0.78929801  0.90993030  0.39257465    -0.58400
O9          O  0.75196223  0.81982165  0.35904194    -0.48500
O10         O  0.82411889  0.91349586  0.37294167    -0.54900
C11         C  0.85872234  0.83360938  0.38576088     0.85200
O12         O  0.72635110  0.75196054  0.38442813    -0.56800
O13         O  0.70861808  0.84318294  0.37154466    -0.60100
In14       In  0.61511371  0.48906923  0.44590238     1.36900
C15         C  0.55215007  0.38868531  0.44242431     0.77600
O16         O  0.67360832  0.47315896  0.43585271    -0.60800
O17         O  0.69206738  0.51022250  0.45541102    -0.51700
C18         C  0.63252205  0.56861593  0.42966111     0.70300
O19         O  0.60460349  0.52244252  0.42589098    -0.46600
C20         C  0.56848808  0.49452873  0.46878851     0.75000
O21         O  0.55910945  0.42035482  0.43283636    -0.58400
O22         O  0.61410199  0.50255622  0.46869450    -0.48500
O23         O  0.57674280  0.40868787  0.45349116    -0.54900
C24         C  0.70541273  0.49081330  0.44582615     0.85200
O25         O  0.64945365  0.57365418  0.44194811    -0.56800
O26         O  0.54766791  0.48694109  0.45686500    -0.60100
In27       In  0.91229374  0.38131513  0.44955483     1.36900
C28         C  0.86105505  0.43192441  0.44697272     0.77600
O29         O  0.84613337  0.31957027  0.43752510    -0.60800
O30         O  0.85446759  0.30415220  0.45853744    -0.51700
C31         C  0.97813747  0.37386627  0.43244612     0.70300
O32         O  0.95998157  0.40307941  0.43014708    -0.46600
C33         C  0.96853198  0.43093485  0.47186214     0.75000
O34         O  0.89266227  0.43458661  0.43786296    -0.58400
O35         O  0.93782021  0.38304969  0.47159591    -0.48500
O36         O  0.85729408  0.40455513  0.45733463    -0.54900
C37         C  0.82739843  0.28877328  0.44754519     0.85200
O38         O  0.96393349  0.35010021  0.44385939    -0.56800
O39         O  0.97241769  0.45276725  0.46034315    -0.60100
In40       In  0.07371788  0.22948002  0.37664480     1.36900
C41         C  0.12821617  0.18253789  0.37845777     0.77600
O42         O  0.01624999  0.16496029  0.38965127    -0.60800
O43         O  0.99295748  0.17139379  0.36932063    -0.51700
C44         C  0.06666782  0.29473760  0.39388759     0.70300
O45         O  0.09644235  0.27708906  0.39610580    -0.46600
C46         C  0.12069261  0.28268195  0.35393781     0.75000
O47         O  0.13206721  0.21490370  0.38750075    -0.58400
O48         O  0.07292537  0.24996988  0.35418408    -0.48500
O49         O  0.09651380  0.17464802  0.36877211    -0.54900
C50         C  0.98110659  0.14612984  0.38055806     0.85200
O51         O  0.04327005  0.28148753  0.38231729    -0.56800
O52         O  0.14290864  0.28992096  0.36557882    -0.60100
In53       In  0.17014923  0.93359004  0.38191373     1.36900
C54         C  0.06909097  0.88255679  0.38575005     0.77600
O55         O  0.16831123  0.99816432  0.39311632    -0.60800
O56         O  0.19626852  0.01080632  0.37248164    -0.51700
C57         C  0.24980120  0.94405451  0.39727293     0.70300
O58         O  0.20467950  0.92550675  0.40200227    -0.46600
C59         C  0.16675730  0.88492973  0.35852902     0.75000
O60         O  0.09891794  0.87517631  0.39360369    -0.58400
O61         O  0.18377966  0.93261515  0.35924442    -0.48500
O62         O  0.09120378  0.91567806  0.37641726    -0.54900
C63         C  0.18439723  0.02830052  0.38288771     0.85200
O64         O  0.25289724  0.95407884  0.38445843    -0.56800
O65         O  0.15336219  0.86212193  0.37012138    -0.60100
In66       In  0.50976351  0.09798598  0.44832283     1.36900
C67         C  0.61185281  0.14114612  0.44791959     0.77600
O68         O  0.52212523  0.16438981  0.43516885    -0.60800
O69         O  0.48381386  0.15417437  0.45435492    -0.51700
C70         C  0.43314222  0.03435832  0.43157019     0.70300
O71         O  0.48012294  0.05222460  0.42845069    -0.46600
C72         C  0.50024500  0.04283523  0.47091002     0.75000
O73         O  0.58351546  0.10859239  0.43878569    -0.58400
O74         O  0.49595436  0.08266002  0.47130848    -0.48500
O75         O  0.58769192  0.15146231  0.45685181    -0.54900
C76         C  0.50130767  0.18100062  0.44344853     0.85200
O77         O  0.42610469  0.04702195  0.44354854    -0.56800
O78         O  0.50652765  0.03030721  0.45885248    -0.60100
In79       In  0.09502130  0.48981338  0.04892523     1.36900
C80         C  0.14329351  0.59108243  0.05157716     0.77600
O81         O  0.16704381  0.50315176  0.05999418    -0.60800
O82         O  0.14761159  0.46352348  0.04071830    -0.51700
C83         C  0.03332772  0.41271718  0.06567870     0.70300
O84         O  0.04787084  0.45909308  0.06847618    -0.46600
C85         C  0.04202411  0.48618351  0.02608386     0.75000
O86         O  0.11217182  0.56191648  0.06075944    -0.58400
O87         O  0.07817389  0.47594982  0.02601740    -0.48500
O88         O  0.14793981  0.56808470  0.04120912    -0.54900
C89         C  0.18012566  0.48301965  0.05050009     0.85200
O90         O  0.04793324  0.40623967  0.05393898    -0.56800
O91         O  0.03088689  0.49461569  0.03808577    -0.60100
In92       In  0.94027192  0.15957716  0.11785043     1.36900
C93         C  0.88633688  0.05853440  0.11402190     0.77600
O94         O  0.00228210  0.15511306  0.10570654    -0.60800
O95         O  0.01628654  0.17511022  0.12693534    -0.51700
C96         C  0.95069323  0.23633129  0.10174580     0.70300
O97         O  0.91874610  0.18980274  0.09909246    -0.46600
C98         C  0.89240535  0.16737273  0.14026615     0.75000
O99         O  0.89097790  0.08975368  0.10456476    -0.58400
O100        O  0.93923807  0.17867840  0.14044940    -0.48500
O101        O  0.90677176  0.07916031  0.12549487    -0.54900
C102        C  0.03213810  0.16449686  0.11597675     0.85200
O103        O  0.97515819  0.24327577  0.11304019    -0.56800
O104        O  0.87110879  0.15415534  0.12843952    -0.60100
In105      In  0.39863275  0.88444024  0.04777727     1.36900
C106        C  0.45205743  0.83586890  0.04774368     0.77600
O107        O  0.33837688  0.81642007  0.05955861    -0.60800
O108        O  0.32020499  0.82901282  0.03919809    -0.51700
C109        C  0.38863975  0.94696433  0.06542214     0.70300
O110        O  0.41781017  0.92873598  0.06799677    -0.46600
C111        C  0.44552876  0.94105288  0.02567775     0.75000
O112        O  0.45513149  0.86481708  0.05774554    -0.58400
O113        O  0.39774541  0.90894537  0.02588858    -0.48500
O114        O  0.42222138  0.83274051  0.03803966    -0.54900
C115        C  0.30561428  0.80040862  0.04977041     0.85200
O116        O  0.36745645  0.93531835  0.05356433    -0.56800
O117        O  0.46823678  0.94706299  0.03725078    -0.60100
In118      In  0.23285464  0.04781121  0.11663992     1.36900
C119        C  0.18350651  0.10006882  0.11388417     0.77600
O120        O  0.16673455  0.98871330  0.10395213    -0.60800
O121        O  0.17420221  0.96985303  0.12470929    -0.51700
C122        C  0.29989791  0.03523608  0.10132820     0.70300
O123        O  0.28477109  0.06632331  0.09806661    -0.46600
C124        C  0.28598708  0.10104694  0.13890448     0.75000
O125        O  0.21353451  0.10077718  0.10451075    -0.58400
O126        O  0.25354610  0.05338375  0.13939678    -0.48500
O127        O  0.17972003  0.07310628  0.12434431    -0.54900
C128        C  0.14746341  0.95629739  0.11365002     0.85200
O129        O  0.28267420  0.01313994  0.11284922    -0.56800
O130        O  0.29374309  0.11958693  0.12680314    -0.60100
In131      In  0.49375823  0.58329780  0.04675487     1.36900
C132        C  0.39244372  0.53511791  0.05029339     0.77600
O133        O  0.49080195  0.64588786  0.05855518    -0.60800
O134        O  0.51490269  0.66054763  0.03763883    -0.51700
C135        C  0.56920078  0.59293802  0.06364663     0.70300
O136        O  0.52205147  0.56303771  0.06623530    -0.46600
C137        C  0.49529564  0.53450208  0.02370310     0.75000
O138        O  0.42199285  0.53207100  0.05924414    -0.58400
O139        O  0.51606823  0.58270874  0.02458410    -0.48500
O140        O  0.41513473  0.56161589  0.03974518    -0.54900
C141        C  0.50409244  0.67672967  0.04852850     0.85200
O142        O  0.57756698  0.61412201  0.05188283    -0.56800
O143        O  0.47569587  0.51112923  0.03493577    -0.60100
In144      In  0.83027785  0.75837471  0.11428928     1.36900
C145        C  0.93234691  0.80419899  0.11092463     0.77600
O146        O  0.83626982  0.82554892  0.10263360    -0.60800
O147        O  0.81538457  0.81809980  0.12383240    -0.51700
C148        C  0.74912179  0.69006871  0.09907643     0.70300
O149        O  0.79513530  0.70307846  0.09604474    -0.46600
C150        C  0.82451132  0.70705137  0.13731517     0.75000
O151        O  0.90124131  0.77887227  0.10116983    -0.58400
O152        O  0.81028944  0.74004106  0.13668562    -0.48500
O153        O  0.91084426  0.80419123  0.12215162    -0.54900
C154        C  0.82627075  0.84494871  0.11296884     0.85200
O155        O  0.74552609  0.71118510  0.11002354    -0.56800
O156        O  0.83865372  0.69820209  0.12575531    -0.60100
In157      In  0.43904725  0.27174697  0.21104028     1.36900
C158        C  0.48430584  0.21558215  0.21424739     0.77600
O159        O  0.37271048  0.20185084  0.20154227    -0.60800
O160        O  0.41950836  0.26442486  0.18828038    -0.51700
C161        C  0.37487268  0.28898873  0.22629690     0.70300
O162        O  0.38891770  0.25723412  0.22975233    -0.46600
C163        C  0.52563088  0.36275145  0.21320740     0.75000
O164        O  0.45599080  0.21808316  0.22362162    -0.58400
O165        O  0.49743435  0.34872194  0.20242202    -0.48500
O166        O  0.48797605  0.24077969  0.20341097    -0.54900
C167        C  0.38279622  0.21851058  0.18924205     0.85200
O168        O  0.39241918  0.31019029  0.21469709    -0.56800
O169        O  0.50778159  0.33072059  0.22302947    -0.60100
In170      In  0.26982096  0.43532461  0.28006183     1.36900
C171        C  0.21436199  0.48188500  0.28052591     0.77600
O172        O  0.20047586  0.37208133  0.29051822    -0.60800
O173        O  0.27129522  0.40882932  0.30171234    -0.51700
C174        C  0.28323715  0.37600404  0.26189437     0.70300
O175        O  0.25543416  0.39564138  0.25914227    -0.46600
C176        C  0.35993215  0.52296408  0.27893533     0.75000
O177        O  0.20924521  0.45111498  0.27080775    -0.58400
O178        O  0.34722179  0.49229504  0.28908805    -0.48500
O179        O  0.24650641  0.48687843  0.28980431    -0.54900
C180        C  0.22341750  0.37664024  0.30194861     0.85200
O181        O  0.30159518  0.38496250  0.27408927    -0.56800
O182        O  0.32787753  0.50642376  0.26901504    -0.60100
In183      In  0.84189248  0.56064606  0.21078733     1.36900
C184        C  0.74028746  0.51426271  0.21415922     0.77600
O185        O  0.83334795  0.62133983  0.19946990    -0.60800
O186        O  0.85830891  0.57737782  0.18820140    -0.51700
C187        C  0.92108338  0.62457353  0.22709960     0.70300
O188        O  0.87438949  0.60648341  0.23050485    -0.46600
C189        C  0.84563682  0.47444557  0.21212661     0.75000
O190        O  0.77123958  0.54686187  0.22288104    -0.58400
O191        O  0.86142778  0.50385713  0.20173390    -0.48500
O192        O  0.76154916  0.50702276  0.20381319    -0.54900
C193        C  0.84479574  0.61088900  0.18772548     0.85200
O194        O  0.92665485  0.61167883  0.21504547    -0.56800
O195        O  0.83254212  0.49197383  0.22226151    -0.60100
In196      In  0.16004406  0.72591637  0.28584770     1.36900
C197        C  0.26201565  0.78230530  0.28525094     0.77600
O198        O  0.16270712  0.79361083  0.29632704    -0.60800
O199        O  0.13547709  0.72468325  0.30784648    -0.51700
C200        C  0.08568117  0.71105828  0.26794921     0.70300
O201        O  0.13282768  0.74173361  0.26541949    -0.46600
C202        C  0.15567550  0.63581826  0.28440746     0.75000
O203        O  0.23403848  0.78363653  0.27550099    -0.58400
O204        O  0.13804019  0.64872437  0.29456562    -0.48500
O205        O  0.23748797  0.75287732  0.29515055    -0.54900
C206        C  0.14744832  0.77132041  0.30792424     0.85200
O207        O  0.07757108  0.69041971  0.27975706    -0.56800
O208        O  0.17269527  0.66796688  0.27462131    -0.60100
In209      In  0.72745629  0.15761605  0.21258078     1.36900
C210        C  0.78063030  0.25931860  0.21409440     0.77600
O211        O  0.79749290  0.16132272  0.20298154    -0.60800
O212        O  0.73239524  0.14093700  0.19004942    -0.51700
C213        C  0.71149742  0.08228379  0.23005007     0.70300
O214        O  0.74251095  0.12913842  0.23277485    -0.46600
C215        C  0.63599264  0.15238879  0.21397593     0.75000
O216        O  0.78299236  0.23165683  0.22369371    -0.58400
O217        O  0.64873306  0.13421888  0.20387630    -0.48500
O218        O  0.75249504  0.23450180  0.20389457    -0.54900
C219        C  0.77898216  0.15162266  0.19079545     0.85200
O220        O  0.69110387  0.07440232  0.21811305    -0.56800
O221        O  0.66917976  0.17018058  0.22364335    -0.60100
In222      In  0.56269157  0.83970049  0.28678721     1.36900
C223        C  0.51390596  0.73774569  0.28431739     0.77600
O224        O  0.62858057  0.83697077  0.29698392    -0.60800
O225        O  0.58270499  0.85718126  0.30933438    -0.51700
C226        C  0.62485001  0.91936491  0.27083667     0.70300
O227        O  0.61518206  0.87398289  0.26835143    -0.46600
C228        C  0.47614017  0.84295261  0.28428732     0.75000
O229        O  0.54251422  0.76697426  0.27472552    -0.58400
O230        O  0.50386052  0.85788168  0.29518952    -0.48500
O231        O  0.51227381  0.76120121  0.29497122    -0.54900
C232        C  0.61940398  0.84772804  0.30894674     0.85200
O233        O  0.60410910  0.92355743  0.28176313    -0.56800
O234        O  0.49467089  0.82898378  0.27460702    -0.60100
In235      In  0.60623204  0.08465389  0.95225053     1.36900
C236        C  0.54756642  0.12810897  0.95099794     0.77600
O237        O  0.53870212  0.02075225  0.96333878    -0.60800
O238        O  0.60784004  0.06601441  0.97480607    -0.51700
C239        C  0.62091642  0.02337565  0.93487742     0.70300
O240        O  0.58800094  0.03713620  0.93250862    -0.46600
C241        C  0.69622670  0.17248454  0.95039772     0.75000
O242        O  0.54953199  0.10165642  0.94097673    -0.58400
O243        O  0.68622848  0.14057257  0.96008725    -0.48500
O244        O  0.57494574  0.13116501  0.96134846    -0.54900
C245        C  0.56100184  0.03108104  0.97508556     0.85200
O246        O  0.64381473  0.03884912  0.94643187    -0.56800
O247        O  0.66085028  0.15783472  0.94135802    -0.60100
In248      In  0.77230858  0.92279401  0.88107237     1.36900
C249        C  0.82671866  0.87448394  0.88191629     0.77600
O250        O  0.71407259  0.85179935  0.86971743    -0.60800
O251        O  0.74885302  0.92254862  0.85887844    -0.51700
C252        C  0.70748640  0.93387353  0.89791909     0.70300
O253        O  0.72734870  0.90663214  0.90109369    -0.46600
C254        C  0.85452808  0.01576439  0.88412037     0.75000
O255        O  0.79161494  0.86504768  0.89073450    -0.58400
O256        O  0.82852896  0.00125499  0.87295269    -0.48500
O257        O  0.83361781  0.90857139  0.87320210    -0.54900
C258        C  0.71958550  0.87441701  0.85821766     0.85200
O259        O  0.71794970  0.95165282  0.88572114    -0.56800
O260        O  0.83595450  0.98354998  0.89388582    -0.60100
In261      In  0.48943666  0.37136063  0.95130434     1.36900
C262        C  0.59151031  0.42566186  0.94897527     0.77600
O263        O  0.50147615  0.44348979  0.96187586    -0.60800
O264        O  0.46402646  0.37365556  0.97317843    -0.51700
C265        C  0.41342468  0.35875896  0.93409072     0.70300
O266        O  0.46066006  0.38771511  0.93131037    -0.46600
C267        C  0.48457677  0.27988596  0.94960018     0.75000
O268        O  0.56199226  0.42599637  0.93951971    -0.58400
O269        O  0.47271194  0.29507511  0.96052306    -0.48500
O270        O  0.56837142  0.39792578  0.95928648    -0.54900
C271        C  0.48172893  0.42165639  0.97325876     0.85200
O272        O  0.40550278  0.33840589  0.94595669    -0.56800
O273        O  0.49605731  0.31054722  0.93957457    -0.60100
In274      In  0.16878442  0.21277253  0.87723110     1.36900
C275        C  0.06834251  0.16645236  0.88304669     0.77600
O276        O  0.16470405  0.27768431  0.86685730    -0.60800
O277        O  0.17679423  0.22679097  0.85426089    -0.51700
C278        C  0.24937757  0.27656605  0.89311834     0.70300
O279        O  0.20375424  0.26645694  0.89553287    -0.46600
C280        C  0.17547004  0.12783393  0.87718629     0.75000
O281        O  0.10256475  0.19102960  0.89218073    -0.58400
O282        O  0.18995627  0.15843759  0.86703579    -0.48500
O283        O  0.08575237  0.16727808  0.87109291    -0.54900
C284        C  0.16881040  0.26416590  0.85468891     0.85200
O285        O  0.25368927  0.25607706  0.88215118    -0.56800
O286        O  0.16034191  0.14253913  0.88750565    -0.60100
In287      In  0.89458515  0.48762841  0.95051615     1.36900
C288        C  0.85050373  0.38592646  0.94871321     0.77600
O289        O  0.96141612  0.48979217  0.96197014    -0.60800
O290        O  0.91098725  0.50602020  0.97338488    -0.51700
C291        C  0.95683130  0.56305212  0.93334454     0.70300
O292        O  0.94264795  0.51641578  0.93108745    -0.46600
C293        C  0.80707181  0.49019264  0.94720544     0.75000
O294        O  0.88085410  0.41515475  0.93943163    -0.58400
O295        O  0.83579096  0.50791473  0.95785164    -0.48500
O296        O  0.84506272  0.40907376  0.95891380    -0.54900
C297        C  0.94955151  0.49942459  0.97373027     0.85200
O298        O  0.94118133  0.57093097  0.94476016    -0.56800
O299        O  0.82485807  0.47366410  0.93797938    -0.60100
In300      In  0.06994531  0.81419671  0.87905443     1.36900
C301        C  0.12184630  0.91613646  0.87959405     0.77600
O302        O  0.14097569  0.82044918  0.86917423    -0.60800
O303        O  0.07348810  0.79355223  0.85672797    -0.51700
C304        C  0.05298239  0.73706382  0.89600489     0.70300
O305        O  0.08618525  0.78336409  0.89870144    -0.46600
C306        C  0.97957560  0.81087990  0.88191306     0.75000
O307        O  0.12649577  0.88993134  0.88926245    -0.58400
O308        O  0.99135269  0.79469343  0.87113782    -0.48500
O309        O  0.09202264  0.88966505  0.86982358    -0.54900
C310        C  0.12094792  0.80699350  0.85720015     0.85200
O311        O  0.03166330  0.73067979  0.88421327    -0.56800
O312        O  0.01302286  0.82584664  0.89150878    -0.60100
In313      In  0.29119222  0.83051017  0.78432989     1.36900
C314        C  0.23633784  0.72952252  0.78132551     0.77600
O315        O  0.34889660  0.81782825  0.77277017    -0.60800
O316        O  0.36851712  0.85051649  0.79295966    -0.51700
C317        C  0.31199832  0.91420216  0.76966786     0.70300
O318        O  0.27868557  0.86939212  0.76564048    -0.46600
C319        C  0.23845427  0.83115182  0.80663228     0.75000
O320        O  0.23743451  0.75918442  0.77174958    -0.58400
O321        O  0.28460211  0.84039607  0.80730601    -0.48500
O322        O  0.26311741  0.75210607  0.79190545    -0.54900
C323        C  0.38117507  0.83309731  0.78268010     0.85200
O324        O  0.33165366  0.91502201  0.78134926    -0.56800
O325        O  0.22095596  0.82508810  0.79435382    -0.60100
In326      In  0.45197444  0.15777285  0.71387373     1.36900
C327        C  0.50172384  0.26019167  0.71533489     0.77600
O328        O  0.52154527  0.16270222  0.72426387    -0.60800
O329        O  0.49987075  0.12713362  0.70443883    -0.51700
C330        C  0.39028821  0.08561815  0.73171018     0.70300
O331        O  0.41469500  0.13276994  0.73488828    -0.46600
C332        C  0.39621996  0.15040384  0.69147256     0.75000
O333        O  0.47075963  0.23261006  0.72473702    -0.58400
O334        O  0.43157294  0.13908130  0.69149120    -0.48500
O335        O  0.50687202  0.23516527  0.70560287    -0.54900
C336        C  0.53173050  0.14158827  0.71441707     0.85200
O337        O  0.39494582  0.07615411  0.71920440    -0.56800
O338        O  0.38730532  0.16259528  0.70329654    -0.60100
In339      In  0.57266288  0.70658185  0.78499552     1.36900
C340        C  0.52817969  0.76377141  0.78221756     0.77600
O341        O  0.50116385  0.64570084  0.77404735    -0.60800
O342        O  0.51544637  0.63159737  0.79469029    -0.51700
C343        C  0.63418766  0.69329995  0.76745204     0.70300
O344        O  0.61639909  0.72266551  0.76494498    -0.46600
C345        C  0.62622970  0.75408897  0.80788793     0.75000
O346        O  0.55806048  0.76319906  0.77304549    -0.58400
O347        O  0.59507456  0.70638528  0.80729657    -0.48500
O348        O  0.52234711  0.73595049  0.79262701    -0.54900
C349        C  0.48478216  0.61638513  0.78445227     0.85200
O350        O  0.62306045  0.67317557  0.77937710    -0.56800
O351        O  0.63374150  0.77637144  0.79626971    -0.60100
In352      In  0.74773443  0.55867779  0.71179424     1.36900
C353        C  0.80437983  0.51381878  0.71225304     0.77600
O354        O  0.69303636  0.48975057  0.72415416    -0.60800
O355        O  0.66767471  0.50109820  0.70452078    -0.51700
C356        C  0.73001116  0.61736074  0.72909921     0.70300
O357        O  0.75955363  0.60004753  0.73222916    -0.46600
C358        C  0.79506361  0.61302243  0.68929401     0.75000
O359        O  0.81007416  0.54692639  0.72133379    -0.58400
O360        O  0.74820341  0.57792983  0.68932647    -0.48500
O361        O  0.77079994  0.50513698  0.70303697    -0.54900
C362        C  0.65737209  0.47285683  0.71517271     0.85200
O363        O  0.71338635  0.60771089  0.71671415    -0.56800
O364        O  0.81591148  0.62367098  0.70124579    -0.60100
In365      In  0.16693127  0.42529672  0.78316071     1.36900
C366        C  0.26885884  0.46668382  0.78263034     0.77600
O367        O  0.18469403  0.49538679  0.77085992    -0.60800
O368        O  0.14960104  0.48587189  0.79055301    -0.51700
C369        C  0.08831680  0.36687706  0.76619767     0.70300
O370        O  0.13439069  0.37898293  0.76339963    -0.46600
C371        C  0.15396509  0.37007769  0.80595366     0.75000
O372        O  0.24039184  0.43524174  0.77329840    -0.58400
O373        O  0.14709970  0.40823719  0.80572052    -0.48500
O374        O  0.24437928  0.47478490  0.79197801    -0.54900
C375        C  0.16884215  0.51421176  0.77999588     0.85200
O376        O  0.08345197  0.38323400  0.77782799    -0.56800
O377        O  0.16319043  0.35768899  0.79418662    -0.60100
In378      In  0.84437660  0.26187166  0.70841101     1.36900
C379        C  0.74239765  0.20216187  0.71081865     0.77600
O380        O  0.83737875  0.32370695  0.71917755    -0.60800
O381        O  0.86824267  0.33913293  0.69885543    -0.51700
C382        C  0.92184176  0.27989780  0.72555331     0.70300
O383        O  0.87493003  0.25347066  0.72901780    -0.46600
C384        C  0.85141077  0.21152933  0.68661933     0.75000
O385        O  0.77315532  0.20115541  0.71974180    -0.58400
O386        O  0.85806185  0.25640892  0.68578592    -0.48500
O387        O  0.76416401  0.23430959  0.70123519    -0.54900
C388        C  0.85490693  0.35529767  0.70925721     0.85200
O389        O  0.92842526  0.29426283  0.71304478    -0.56800
O390        O  0.84464278  0.19435573  0.69886295    -0.60100
In391      In  0.11882778  0.59595309  0.54474312     1.36900
C392        C  0.16523127  0.54047183  0.54736564     0.77600
O393        O  0.05579417  0.52722486  0.53376399    -0.60800
O394        O  0.09936263  0.59603453  0.52234185    -0.51700
C395        C  0.05811725  0.61540109  0.56084100     0.70300
O396        O  0.07311909  0.58433347  0.56432258    -0.46600
C397        C  0.20508648  0.68593480  0.54660398     0.75000
O398        O  0.13312833  0.53814010  0.55630664    -0.58400
O399        O  0.17781800  0.67093859  0.53568956    -0.48500
O400        O  0.17219730  0.57002363  0.53730220    -0.54900
C401        C  0.06522722  0.54913932  0.52203351     0.85200
O402        O  0.07160323  0.63346874  0.54878227    -0.56800
O403        O  0.18633810  0.65547304  0.55673425    -0.60100
In404      In  0.96262998  0.76578896  0.61718915     1.36900
C405        C  0.90172884  0.80605622  0.61579547     0.77600
O406        O  0.89583616  0.70114788  0.62811871    -0.60800
O407        O  0.96428929  0.74704513  0.63969420    -0.51700
C408        C  0.98056408  0.70589341  0.60039584     0.70300
O409        O  0.94824889  0.71990813  0.59735320    -0.46600
C410        C  0.05128084  0.85372833  0.61421096     0.75000
O411        O  0.90064204  0.77571339  0.60645379    -0.58400
O412        O  0.04166930  0.82557974  0.62483821    -0.48500
O413        O  0.93380092  0.81512069  0.62546194    -0.54900
C414        C  0.91763695  0.71162845  0.63993237     0.85200
O415        O  0.00139188  0.72111557  0.61217432    -0.56800
O416        O  0.01573285  0.83564112  0.60521739    -0.60100
In417      In  0.51980047  0.88400234  0.54132584     1.36900
C418        C  0.41920543  0.83691088  0.54565731     0.77600
O419        O  0.51389209  0.95048707  0.53257427    -0.60800
O420        O  0.53130488  0.90635852  0.51873714    -0.51700
C421        C  0.59847090  0.94574552  0.55790834     0.70300
O422        O  0.55195529  0.93112566  0.56078614    -0.46600
C423        C  0.52475400  0.79722185  0.54215005     0.75000
O424        O  0.45145090  0.86414156  0.55494889    -0.58400
O425        O  0.53764919  0.82584909  0.53154470    -0.48500
O426        O  0.43867297  0.83564480  0.53417354    -0.54900
C427        C  0.52121261  0.94228488  0.52014393     0.85200
O428        O  0.60448323  0.93041761  0.54620449    -0.56800
O429        O  0.51203273  0.81485192  0.55233145    -0.60100
In430      In  0.84337612  0.04482197  0.61476726     1.36900
C431        C  0.94600142  0.09560310  0.61257945     0.77600
O432        O  0.85202887  0.11673736  0.62418611    -0.60800
O433        O  0.82584957  0.05106670  0.63699207    -0.51700
C434        C  0.76430231  0.02957011  0.59851484     0.70300
O435        O  0.81097608  0.05973300  0.59528477    -0.46600
C436        C  0.83442209  0.95244160  0.61333763     0.75000
O437        O  0.91708579  0.09559009  0.60288337    -0.58400
O438        O  0.82264511  0.96851132  0.62410445    -0.48500
O439        O  0.92207528  0.07085886  0.62323257    -0.54900
C440        C  0.83961463  0.09825003  0.63626949     0.85200
O441        O  0.75866573  0.00976294  0.61039662    -0.56800
O442        O  0.84791059  0.98286880  0.60319029    -0.60100
In443      In  0.40738459  0.48127651  0.54185963     1.36900
C444        C  0.46444653  0.58327542  0.54376738     0.77600
O445        O  0.47485518  0.48422741  0.53096987    -0.60800
O446        O  0.40695782  0.46395363  0.51919519    -0.51700
C447        C  0.39441557  0.40459114  0.55862819     0.70300
O448        O  0.42550712  0.45139555  0.56136136    -0.46600
C449        C  0.31647652  0.47714520  0.54456271     0.75000
O450        O  0.46458515  0.55405021  0.55324394    -0.58400
O451        O  0.32743105  0.45893284  0.53412981    -0.48500
O452        O  0.43663455  0.55994495  0.53337217    -0.54900
C453        C  0.45326541  0.47379707  0.51912961     0.85200
O454        O  0.37206493  0.39728707  0.54698983    -0.56800
O455        O  0.35129780  0.49478932  0.55380388    -0.60100
In456      In  0.25447107  0.16428722  0.61650177     1.36900
C457        C  0.21201032  0.06354129  0.61473348     0.77600
O458        O  0.31800602  0.15889845  0.62735208    -0.60800
O459        O  0.27397590  0.18272601  0.63913818    -0.51700
C460        C  0.31586022  0.24216792  0.59970497     0.70300
O461        O  0.30147824  0.19578633  0.59688822    -0.46600
C462        C  0.16387537  0.16159090  0.61442516     0.75000
O463        O  0.23979261  0.09271947  0.60502695    -0.58400
O464        O  0.19456264  0.18184205  0.62457646    -0.48500
O465        O  0.20763315  0.08631853  0.62516978    -0.54900
C466        C  0.30827997  0.16981542  0.63922780     0.85200
O467        O  0.30072396  0.24821634  0.61140342    -0.56800
O468        O  0.18163864  0.14603445  0.60490423    -0.60100
C469        C  0.34258804  0.27236593  0.57545175    -0.05700
C470        C  0.34459864  0.28509519  0.58963444     0.00200
C471        C  0.37050261  0.33791875  0.59352940    -0.08400
C472        C  0.38884394  0.37551911  0.58299912    -0.05800
C473        C  0.38220182  0.36250980  0.56879382     0.00200
C474        C  0.36099526  0.31007933  0.56492569    -0.08300
C475        C  0.35663870  0.29331828  0.54981626     0.62100
H476        H  0.32380101  0.23213842  0.57253908     0.12800
H477        H  0.40609432  0.41569324  0.58584863     0.12800
C478        C  0.37845311  0.35525865  0.60865352     0.62300
F479        F  0.34660989  0.24315585  0.54870375    -0.22800
F480        F  0.40246527  0.32451712  0.54294077    -0.20200
F481        F  0.31672864  0.29620828  0.54334221    -0.19800
F482        F  0.39918093  0.33030237  0.61608223    -0.19900
F483        F  0.33179653  0.34453252  0.61440779    -0.20200
F484        F  0.41215286  0.40764765  0.60996382    -0.22900
C485        C  0.03071498  0.14000638  0.62448764    -0.05700
C486        C  0.00331617  0.12108136  0.61192579     0.00200
C487        C  0.03031639  0.12129262  0.59982878    -0.08400
C488        C  0.08343957  0.13764903  0.60100289    -0.05800
C489        C  0.11029658  0.15352282  0.61380603     0.00200
C490        C  0.08368309  0.15622931  0.62572600    -0.08300
C491        C  0.10967201  0.17349248  0.63991318     0.62100
H492        H  0.00944963  0.14005874  0.63357876     0.12800
H493        H  0.10408573  0.13640121  0.59191766     0.12800
C494        C  0.00284823  0.10203585  0.58591350     0.62300
F495        F  0.07660163  0.17417407  0.64984361    -0.22800
F496        F  0.15156495  0.22281663  0.63903806    -0.20200
F497        F  0.12584174  0.14008298  0.64447061    -0.19800
F498        F  0.98273253  0.13249699  0.58166740    -0.19900
F499        F  0.96325694  0.05164693  0.58716194    -0.20200
F500        F  0.03588960  0.10358965  0.57562992    -0.22900
C501        C  0.50675225  0.71928240  0.55558638    -0.05700
C502        C  0.52112371  0.74567494  0.54277765     0.00200
C503        C  0.52734960  0.72039194  0.53105471    -0.08400
C504        C  0.51124301  0.66766651  0.53210442    -0.05800
C505        C  0.49204656  0.64029852  0.54456339     0.00200
C506        C  0.49316267  0.66723796  0.55676439    -0.08300
C507        C  0.47830398  0.64089425  0.57084238     0.62100
H508        H  0.50440942  0.73925661  0.56468723     0.12800
H509        H  0.51176056  0.64673668  0.52297883     0.12800
C510        C  0.54985875  0.74788273  0.51741515     0.62300
F511        F  0.48273034  0.67441945  0.58136180    -0.22800
F512        F  0.51073574  0.62189571  0.57412406    -0.20200
F513        F  0.42765979  0.60091243  0.57049073    -0.19800
F514        F  0.59664250  0.79212060  0.51992232    -0.19900
F515        F  0.51597541  0.76030925  0.51103400    -0.20200
F516        F  0.55896318  0.71765350  0.50827023    -0.22900
C517        C  0.62929191  0.97088333  0.58219120    -0.05700
C518        C  0.64157049  0.97516316  0.56796260     0.00200
C519        C  0.69415647  0.00431368  0.56395861    -0.08400
C520        C  0.73257840  0.02401228  0.57439382    -0.05800
C521        C  0.72053874  0.01544171  0.58861876     0.00200
C522        C  0.66772774  0.99031569  0.59265661    -0.08300
C523        C  0.65124947  0.98295319  0.60782894     0.62100
H524        H  0.58897723  0.94949050  0.58513238     0.12800
H525        H  0.77285052  0.04395691  0.57139509     0.12800
C526        C  0.71037436  0.01409703  0.54880032     0.62300
F527        F  0.59894178  0.96569992  0.60917418    -0.22800
F528        F  0.67795612  0.02920384  0.61491902    -0.20200
F529        F  0.66094707  0.94693334  0.61394674    -0.19800
F530        F  0.68114820  0.03084616  0.54169588    -0.19900
F531        F  0.70368648  0.96936504  0.54275235    -0.20200
F532        F  0.76185381  0.05150845  0.54744652    -0.22900
C533        C  0.13309241  0.92335149  0.62433383    -0.05700
C534        C  0.09910012  0.90475802  0.61281774     0.00200
C535        C  0.11024997  0.93653491  0.60082936    -0.08400
C536        C  0.15181557  0.98729588  0.60143349    -0.05800
C537        C  0.18151134  0.00721270  0.61353085     0.00200
C538        C  0.17435894  0.97436688  0.62488654    -0.08300
C539        C  0.20998707  0.99295669  0.63754368     0.62100
H540        H  0.12580395  0.89905962  0.63307963     0.12800
H541        H  0.15866441  0.01315058  0.59288608     0.12800
C542        C  0.07778664  0.91875902  0.58758371     0.62300
F543        F  0.20307031  0.95238705  0.64587027    -0.22800
F544        F  0.20042341  0.02554383  0.64553357    -0.20200
F545        F  0.26098812  0.01886222  0.63328044    -0.19800
F546        F  0.02915357  0.91181442  0.59010494    -0.19900
F547        F  0.07369092  0.87324048  0.58294942    -0.20200
F548        F  0.09952884  0.95431640  0.57694676    -0.22900
C549        C  0.84074792  0.88492513  0.62621899    -0.05700
C550        C  0.83754907  0.90462161  0.61323167     0.00200
C551        C  0.84379077  0.88203218  0.60090174    -0.08400
C552        C  0.86041716  0.84582746  0.60217508    -0.05800
C553        C  0.87078259  0.83200286  0.61523675     0.00200
C554        C  0.85699434  0.84866294  0.62746877    -0.08300
C555        C  0.86202187  0.83098985  0.64192898     0.62100
H556        H  0.83432108  0.90098384  0.63558290     0.12800
H557        H  0.86939298  0.83125536  0.59292606     0.12800
C558        C  0.83457430  0.89660053  0.58645330     0.62300
F559        F  0.83236900  0.83915898  0.65150855    -0.22800
F560        F  0.91302568  0.85813839  0.64629833    -0.20200
F561        F  0.84530060  0.77888976  0.64184163    -0.19800
F562        F  0.87396678  0.94522674  0.58303164    -0.19900
F563        F  0.78771739  0.89547289  0.58606846    -0.20200
F564        F  0.83299988  0.86278591  0.57639212    -0.22900
C565        C  0.28804500  0.73752650  0.55895328    -0.05700
C566        C  0.25691543  0.73274760  0.54735710     0.00200
C567        C  0.27806096  0.76940105  0.53645392    -0.08400
C568        C  0.33114786  0.80558364  0.53686657    -0.05800
C569        C  0.36299365  0.80678887  0.54780502     0.00200
C570        C  0.34106293  0.77375976  0.55934266    -0.08300
C571        C  0.37387950  0.77401934  0.57152060     0.62100
H572        H  0.27129932  0.71033254  0.56740177     0.12800
H573        H  0.34889171  0.83175289  0.52822857     0.12800
C574        C  0.24599762  0.76990143  0.52417826     0.62300
F575        F  0.34468213  0.73770314  0.58145281    -0.22800
F576        F  0.39757654  0.82174451  0.57790990    -0.20200
F577        F  0.41111281  0.76320656  0.56682889    -0.19800
F578        F  0.20093424  0.76703313  0.52887809    -0.19900
F579        F  0.23412584  0.72879793  0.51543250    -0.20200
F580        F  0.27230149  0.81459710  0.51647128    -0.22900
C581        C  0.19788144  0.48901873  0.53599533    -0.05700
C582        C  0.19415472  0.51245997  0.54823078     0.00200
C583        C  0.22452453  0.51589397  0.55995175    -0.08400
C584        C  0.26153196  0.50029676  0.55852239    -0.05800
C585        C  0.26893992  0.48134533  0.54582752     0.00200
C586        C  0.23418097  0.47245976  0.53459129    -0.08300
C587        C  0.23584035  0.44735569  0.52100843     0.62100
H588        H  0.17347918  0.48601431  0.52724052     0.12800
H589        H  0.28685604  0.50530571  0.56722021     0.12800
C590        C  0.22011012  0.53871231  0.57362435     0.62300
F591        F  0.19543625  0.43863664  0.51217079    -0.22800
F592        F  0.23189721  0.40029095  0.52373444    -0.20200
F593        F  0.28153542  0.47876730  0.51412122    -0.19800
F594        F  0.17021307  0.51027328  0.57857440    -0.19900
F595        F  0.23203906  0.58908411  0.57163350    -0.20200
F596        F  0.25328735  0.53841528  0.58370407    -0.22900
C597        C  0.03775588  0.62806659  0.58491159    -0.05700
C598        C  0.03097612  0.63244915  0.57059872     0.00200
C599        C  0.00239614  0.65621539  0.56621966    -0.08400
C600        C  0.98473047  0.67760637  0.57637924    -0.05800
C601        C  0.99488409  0.67648170  0.59064877     0.00200
C602        C  0.02058939  0.64982955  0.59505236    -0.08300
C603        C  0.03088189  0.64464841  0.61032587     0.62100
H604        H  0.05923136  0.60955507  0.58814027     0.12800
H605        H  0.96470081  0.69758256  0.57313445     0.12800
C606        C  0.99064494  0.65965424  0.55096391     0.62300
F607        F  0.04893711  0.61066602  0.61222869    -0.22800
F608        F  0.98567293  0.62635988  0.61783673    -0.20200
F609        F  0.06791340  0.69191335  0.61556364    -0.19800
F610        F  0.97089686  0.61197719  0.54466592    -0.19900
F611        F  0.03523926  0.69494771  0.54423577    -0.20200
F612        F  0.95444067  0.67524338  0.54936551    -0.22900
C613        C  0.83070361  0.10330159  0.66170688    -0.05700
C614        C  0.84270673  0.12890616  0.64883373     0.00200
C615        C  0.85928591  0.18231627  0.64857384    -0.08400
C616        C  0.86212241  0.20733815  0.66121559    -0.05800
C617        C  0.84986492  0.18161174  0.67407001     0.00200
C618        C  0.83419926  0.12845208  0.67435813    -0.08300
C619        C  0.82074932  0.09762299  0.68779270     0.62100
H620        H  0.81864023  0.06283095  0.66182953     0.12800
H621        H  0.87420213  0.24783267  0.66112548     0.12800
C622        C  0.87441729  0.21350948  0.63519590     0.62300
F623        F  0.80727639  0.04689098  0.68549210    -0.22800
F624        F  0.77917128  0.09752005  0.69409066    -0.20200
F625        F  0.86296715  0.11883623  0.69671195    -0.19800
F626        F  0.83322586  0.19288098  0.62593740    -0.19900
F627        F  0.91646101  0.21330569  0.62930276    -0.20200
F628        F  0.88819639  0.26433475  0.63749619    -0.22900
C629        C  0.05575386  0.33476544  0.74232944    -0.05700
C630        C  0.04419703  0.33832058  0.75632752     0.00200
C631        C  0.99157020  0.31765903  0.76022048    -0.08400
C632        C  0.95309742  0.29595033  0.74984857    -0.05800
C633        C  0.96499544  0.29596272  0.73573411     0.00200
C634        C  0.01725691  0.31477886  0.73187427    -0.08300
C635        C  0.03304289  0.31525610  0.71682704     0.62100
H636        H  0.09582529  0.35044627  0.73946143     0.12800
H637        H  0.91314621  0.28147680  0.75264166     0.12800
C638        C  0.97528299  0.31978779  0.77508184     0.62300
F639        F  0.08418723  0.32763030  0.71577353    -0.22800
F640        F  0.02721026  0.35150916  0.70940003    -0.20200
F641        F  0.00283276  0.26720814  0.71086901    -0.19800
F642        F  0.99191000  0.37027874  0.77875313    -0.19900
F643        F  0.99608919  0.29899279  0.78412608    -0.20200
F644        F  0.92211074  0.29228390  0.77662206    -0.22900
C645        C  0.84663180  0.47385158  0.69949482    -0.05700
C646        C  0.83194817  0.48452811  0.71237764     0.00200
C647        C  0.83555217  0.45990563  0.72450622    -0.08400
C648        C  0.84778412  0.42070743  0.72304786    -0.05800
C649        C  0.85637607  0.40550851  0.70993453     0.00200
C650        C  0.86004600  0.43533655  0.69804387    -0.08300
C651        C  0.87666563  0.42640865  0.68387019     0.62100
H652        H  0.84497501  0.49436093  0.69040226     0.12800
H653        H  0.84767524  0.39945284  0.73216753     0.12800
C654        C  0.82271598  0.47206745  0.73877254     0.62300
F655        F  0.88114404  0.46268373  0.67422091    -0.22800
F656        F  0.84084279  0.37845110  0.67876088    -0.20200
F657        F  0.92448116  0.42987611  0.68506296    -0.19800
F658        F  0.77203199  0.46145202  0.73890826    -0.19900
F659        F  0.85540310  0.52347677  0.74185018    -0.20200
F660        F  0.82850078  0.44333539  0.74915391    -0.22900
C661        C  0.87530353  0.67981308  0.67799465    -0.05700
C662        C  0.82472892  0.63808431  0.67637294     0.00200
C663        C  0.80621066  0.61928031  0.66270804    -0.08400
C664        C  0.83860686  0.64399171  0.65129818    -0.05800
C665        C  0.88896386  0.68593669  0.65290335     0.00200
C666        C  0.90810560  0.70386639  0.66657738    -0.08300
C667        C  0.96273182  0.74783987  0.66931807     0.62100
H668        H  0.88938906  0.69337477  0.68842951     0.12800
H669        H  0.82450727  0.63040719  0.64086386     0.12800
C670        C  0.75310839  0.57278592  0.65996190     0.62300
F671        F  0.97287427  0.75831242  0.68339362    -0.22800
F672        F  0.96984510  0.79226683  0.66298199    -0.20200
F673        F  0.99805243  0.73503553  0.66420374    -0.19800
F674        F  0.71513866  0.58234295  0.66475288    -0.19900
F675        F  0.74929741  0.53012161  0.66658815    -0.20200
F676        F  0.74390501  0.56116263  0.64591006    -0.22900
C677        C  0.34958758  0.51673708  0.79580006    -0.05700
C678        C  0.32634595  0.49474915  0.78294267     0.00200
C679        C  0.35782083  0.50657266  0.77096509    -0.08400
C680        C  0.41061992  0.54429456  0.77212514    -0.05800
C681        C  0.43244185  0.57008574  0.78475542     0.00200
C682        C  0.40166048  0.55514239  0.79693519    -0.08300
C683        C  0.42175847  0.58225135  0.81087895     0.62100
H684        H  0.32545266  0.50588718  0.80496421     0.12800
H685        H  0.43489360  0.55574835  0.76297022     0.12800
C686        C  0.33583465  0.48149452  0.75695524     0.62300
F687        F  0.38394709  0.56313987  0.82102775    -0.22800
F688        F  0.43872708  0.63414084  0.80944188    -0.20200
F689        F  0.46193361  0.57569569  0.81553845    -0.19800
F690        F  0.37386346  0.49696426  0.74692994    -0.19900
F691        F  0.29993406  0.49456380  0.75239413    -0.20200
F692        F  0.31245061  0.42862383  0.75817786    -0.22900
C693        C  0.70094484  0.66967458  0.76224455    -0.05700
C694        C  0.66379235  0.68129604  0.75717894     0.00200
C695        C  0.65266477  0.67671313  0.74269412    -0.08400
C696        C  0.67733811  0.65810319  0.73396166    -0.05800
C697        C  0.71260494  0.64383428  0.73907294     0.00200
C698        C  0.72616771  0.65155863  0.75345944    -0.08300
C699        C  0.76583958  0.63975730  0.75974497     0.62100
H700        H  0.70920503  0.67378254  0.77331706     0.12800
H701        H  0.66784868  0.65314935  0.72297013     0.12800
C702        C  0.61344898  0.68931951  0.73643271     0.62300
F703        F  0.77721105  0.65600426  0.77346387    -0.22800
F704        F  0.81149437  0.66482590  0.75235521    -0.20200
F705        F  0.74696358  0.58727457  0.75943450    -0.19800
F706        F  0.63062635  0.74112582  0.73818025    -0.19900
F707        F  0.56608712  0.66054976  0.74285090    -0.20200
F708        F  0.60612913  0.67865794  0.72230264    -0.22900
C709        C  0.58248758  0.39893657  0.70400091    -0.05700
C710        C  0.60932577  0.42202028  0.71637686     0.00200
C711        C  0.59207932  0.39409844  0.72906046    -0.08400
C712        C  0.55372897  0.34164607  0.72847342    -0.05800
C713        C  0.53193867  0.31713369  0.71575888     0.00200
C714        C  0.54364971  0.34700227  0.70347398    -0.08300
C715        C  0.51595524  0.32434743  0.68975416     0.62100
H716        H  0.59428559  0.42093585  0.69444605     0.12800
H717        H  0.54307656  0.31865541  0.73786152     0.12800
C718        C  0.61454071  0.41835630  0.74313243     0.62300
F719        F  0.52391081  0.36244227  0.68031294    -0.22800
F720        F  0.46327839  0.29472178  0.69193849    -0.20200
F721        F  0.53399236  0.29431849  0.68389578    -0.19800
F722        F  0.61898156  0.46639706  0.74407001    -0.19900
F723        F  0.66262558  0.42296714  0.74489077    -0.20200
F724        F  0.58324910  0.38880192  0.75393679    -0.22900
C725        C  0.60153672  0.14168128  0.70084461    -0.05700
C726        C  0.57994400  0.13916634  0.71394041     0.00200
C727        C  0.60852633  0.14218251  0.72606957    -0.08400
C728        C  0.66167871  0.15948788  0.72475881    -0.05800
C729        C  0.68534120  0.17063759  0.71163164     0.00200
C730        C  0.65382425  0.15622287  0.69948030    -0.08300
C731        C  0.67512604  0.15765315  0.68505921     0.62100
H732        H  0.57851006  0.13630913  0.69157880     0.12800
H733        H  0.68534152  0.16749106  0.73403161     0.12800
C734        C  0.58379803  0.12891332  0.74033879     0.62300
F735        F  0.63588632  0.12819331  0.67568089    -0.22800
F736        F  0.70831972  0.13806176  0.68550231    -0.20200
F737        F  0.70124873  0.20759737  0.68019365    -0.19800
F738        F  0.53357466  0.08813005  0.73939041    -0.19900
F739        F  0.58345825  0.17108911  0.74597365    -0.20200
F740        F  0.61079539  0.11442414  0.74925138    -0.22900
C741        C  0.30547980  0.15976043  0.66487976    -0.05700
C742        C  0.33195223  0.16452084  0.65238279     0.00200
C743        C  0.37781824  0.16134973  0.65282559    -0.08400
C744        C  0.39630508  0.15573005  0.66582449    -0.05800
C745        C  0.37062654  0.15240190  0.67833873     0.00200
C746        C  0.32350557  0.15303671  0.67785699    -0.08300
C747        C  0.29163125  0.14575515  0.69082551     0.62100
H748        H  0.26986658  0.16088254  0.66441331     0.12800
H749        H  0.43185194  0.15450900  0.66630148     0.12800
C750        C  0.40788022  0.16429397  0.63979789     0.62300
F751        F  0.24358693  0.13952049  0.68761476    -0.22800
F752        F  0.31709280  0.18836021  0.69939764    -0.20200
F753        F  0.28367919  0.10228245  0.69791267    -0.19800
F754        F  0.42003295  0.20855260  0.63247652    -0.19900
F755        F  0.37860658  0.12159129  0.63150178    -0.20200
F756        F  0.45376638  0.16543827  0.64290003    -0.22900
C757        C  0.17276487  0.58945516  0.79156956    -0.05700
C758        C  0.17607232  0.56688778  0.77910087     0.00200
C759        C  0.18991708  0.59651063  0.76666022    -0.08400
C760        C  0.20632509  0.64938794  0.76758721    -0.05800
C761        C  0.20815665  0.67272941  0.78038598     0.00200
C762        C  0.18780875  0.64172302  0.79240925    -0.08300
C763        C  0.18315324  0.66348021  0.80628027     0.62100
H764        H  0.16079564  0.56653065  0.80096430     0.12800
H765        H  0.22066614  0.67343784  0.75842743     0.12800
C766        C  0.18768887  0.57308159  0.75247490     0.62300
F767        F  0.14819596  0.62502948  0.81492767    -0.22800
F768        F  0.16584362  0.69799185  0.80423437    -0.20200
F769        F  0.23066723  0.68797916  0.81296344    -0.19800
F770        F  0.14048428  0.52853562  0.75074617    -0.19900
F771        F  0.22718658  0.56198742  0.75129419    -0.20200
F772        F  0.19288689  0.60623017  0.74177915    -0.22900
C773        C  0.49040910  0.81002753  0.79381419    -0.05700
C774        C  0.50043536  0.79300853  0.78123448     0.00200
C775        C  0.47787705  0.79787467  0.76874664    -0.08400
C776        C  0.44166446  0.81480300  0.76958985    -0.05800
C777        C  0.42771157  0.82705913  0.78242499     0.00200
C778        C  0.45447697  0.82706622  0.79471461    -0.08300
C779        C  0.44339683  0.84164716  0.80892535     0.62100
H780        H  0.50914266  0.80714436  0.80317737     0.12800
H781        H  0.42215130  0.81631502  0.76023092     0.12800
C782        C  0.48994052  0.78303909  0.75472598     0.62300
F783        F  0.47587807  0.84109348  0.81917623    -0.22800
F784        F  0.39311246  0.80703663  0.81273782    -0.20200
F785        F  0.45061386  0.89086083  0.80849979    -0.19800
F786        F  0.47681402  0.73184751  0.75481232    -0.19900
F787        F  0.54214850  0.81341236  0.75201834    -0.20200
F788        F  0.46292305  0.78983713  0.74396582    -0.22900
C789        C  0.30096318  0.95673207  0.74867303    -0.05700
C790        C  0.32824233  0.96149300  0.76112299     0.00200
C791        C  0.37188634  0.01030894  0.76456678    -0.08400
C792        C  0.38807987  0.05086649  0.75499233    -0.05800
C793        C  0.36335831  0.04446311  0.74212918     0.00200
C794        C  0.31770519  0.99758213  0.73911586    -0.08300
C795        C  0.28673623  0.99072887  0.72590398     0.62100
H796        H  0.26722187  0.92006092  0.74618465     0.12800
H797        H  0.42255606  0.08737789  0.75710567     0.12800
C798        C  0.40322525  0.01998075  0.77790983     0.62300
F799        F  0.23772415  0.94802046  0.72666152    -0.22800
F800        F  0.31169813  0.98459434  0.71461828    -0.20200
F801        F  0.28124674  0.03335521  0.72380687    -0.19800
F802        F  0.42528903  0.98900620  0.77817944    -0.19900
F803        F  0.37162031  0.00990051  0.78933999    -0.20200
F804        F  0.44296577  0.07048560  0.77903248    -0.22900
C805        C  0.22441356  0.81550555  0.83207128    -0.05700
C806        C  0.20718993  0.82514145  0.81935026     0.00200
C807        C  0.16044416  0.82676108  0.81915803    -0.08400
C808        C  0.13345238  0.81945779  0.83172552    -0.05800
C809        C  0.15103255  0.81053898  0.84445408     0.00200
C810        C  0.19710803  0.80775148  0.84461847    -0.08300
C811        C  0.21684392  0.79506480  0.85779236     0.62100
H812        H  0.25960393  0.81353081  0.83211066     0.12800
H813        H  0.09828510  0.82147674  0.83172929     0.12800
C814        C  0.13902225  0.83686257  0.80589288     0.62300
F815        F  0.25768610  0.78688881  0.85512807    -0.22800
F816        F  0.17762471  0.75070890  0.86369567    -0.20200
F817        F  0.23395584  0.83524682  0.86720124    -0.19800
F818        F  0.12419378  0.79634808  0.79669257    -0.19900
F819        F  0.17621448  0.88206756  0.79983056    -0.20200
F820        F  0.09612476  0.84179368  0.80841399    -0.22900
C821        C  0.00946085  0.64318104  0.90027903    -0.05700
C822        C  0.03709879  0.69322712  0.90586694     0.00200
C823        C  0.04282950  0.69935368  0.92056722    -0.08400
C824        C  0.01821691  0.65527221  0.92904182    -0.05800
C825        C  0.98790581  0.60563131  0.92345048     0.00200
C826        C  0.98424818  0.59919456  0.90875922    -0.08300
C827        C  0.95148645  0.54679494  0.90195119     0.62100
H828        H  0.00589086  0.63885663  0.88906887     0.12800
H829        H  0.02103427  0.65942843  0.94026232     0.12800
C830        C  0.07253053  0.75194240  0.92744363     0.62300
F831        F  0.95134114  0.54997256  0.88756413    -0.22800
F832        F  0.90085709  0.52515941  0.90638207    -0.20200
F833        F  0.97075046  0.51487909  0.90542661    -0.19800
F834        F  0.05011577  0.78112297  0.92395551    -0.19900
F835        F  0.12340436  0.77656757  0.92310634    -0.20200
F836        F  0.07263402  0.74862156  0.94182673    -0.22900
C837        C  0.17254084  0.05566059  0.89015808    -0.05700
C838        C  0.17329403  0.07740441  0.87714061     0.00200
C839        C  0.16501100  0.04785631  0.86487533    -0.08400
C840        C  0.15258955  0.99632039  0.86627995    -0.05800
C841        C  0.14696845  0.97314484  0.87938462     0.00200
C842        C  0.15892823  0.00377818  0.89156941    -0.08300
C843        C  0.15451482  0.98165183  0.90603858     0.62100
H844        H  0.18009618  0.07918722  0.89938556     0.12800
H845        H  0.14441076  0.97268655  0.85704531     0.12800
C846        C  0.16590629  0.06901534  0.85041637     0.62300
F847        F  0.16667582  0.01826449  0.91635667    -0.22800
F848        F  0.18823208  0.96294608  0.90734372    -0.20200
F849        F  0.10441170  0.94238080  0.90824694    -0.19800
F850        F  0.21408700  0.11117514  0.84791093    -0.19900
F851        F  0.12855551  0.08326687  0.84941925    -0.20200
F852        F  0.15600718  0.03309110  0.84005707    -0.22900
C853        C  0.17677681  0.34143069  0.84321779    -0.05700
C854        C  0.16347776  0.28968551  0.84205019     0.00200
C855        C  0.14296679  0.26333175  0.82923996    -0.08400
C856        C  0.13914592  0.29086578  0.81786976    -0.05800
C857        C  0.15382428  0.34304196  0.81892862     0.00200
C858        C  0.17237398  0.36880701  0.83190400    -0.08300
C859        C  0.18901188  0.42525001  0.83383380     0.62100
H860        H  0.19138609  0.36060890  0.85313369     0.12800
H861        H  0.12495925  0.27177672  0.80792206     0.12800
C862        C  0.12416792  0.20629735  0.82751278     0.62300
F863        F  0.20922354  0.44305574  0.84700422    -0.22800
F864        F  0.14684177  0.43202195  0.83205955    -0.20200
F865        F  0.22675646  0.45477560  0.82426241    -0.19800
F866        F  0.08976928  0.17865018  0.83798813    -0.19900
F867        F  0.16578098  0.19815223  0.82800933    -0.20200
F868        F  0.09888514  0.18736114  0.81491062    -0.22900
C869        C  0.67140147  0.45591835  0.93508516    -0.05700
C870        C  0.64861582  0.45328325  0.94801924     0.00200
C871        C  0.68054572  0.47323686  0.95999519    -0.08400
C872        C  0.73299663  0.48816558  0.95898020    -0.05800
C873        C  0.75481242  0.48485315  0.94639169     0.00200
C874        C  0.72448635  0.47222350  0.93398450    -0.08300
C875        C  0.74723609  0.47558628  0.91966232     0.62100
H876        H  0.64677467  0.44233150  0.92592340     0.12800
H877        H  0.75663379  0.49984617  0.96833111     0.12800
C878        C  0.65967998  0.47877083  0.97387162     0.62300
F879        F  0.71395576  0.47292181  0.90917231    -0.22800
F880        F  0.75665161  0.43545243  0.91775805    -0.20200
F881        F  0.79286476  0.52190203  0.91831015    -0.19800
F882        F  0.63163805  0.43127316  0.98015516    -0.19900
F883        F  0.62841688  0.49995233  0.97180205    -0.20200
F884        F  0.69910485  0.51080907  0.98288663    -0.22900
C885        C  0.28085261  0.30771075  0.91703232    -0.05700
C886        C  0.29305051  0.30641758  0.90297809     0.00200
C887        C  0.34583545  0.33039351  0.89906719    -0.08400
C888        C  0.38402033  0.34977068  0.90958558    -0.05800
C889        C  0.37138613  0.34631505  0.92376783     0.00200
C890        C  0.31908827  0.32763318  0.92753238    -0.08300
C891        C  0.30315128  0.32864221  0.94247299     0.62100
H892        H  0.24059515  0.29057632  0.91988818     0.12800
H893        H  0.42415140  0.36533617  0.90678287     0.12800
C894        C  0.36236268  0.33546250  0.88394874     0.62300
F895        F  0.25274362  0.31887381  0.94322818    -0.22800
F896        F  0.33491891  0.37666378  0.94826691    -0.20200
F897        F  0.30651651  0.29163416  0.95022112    -0.19800
F898        F  0.33665868  0.35444517  0.87610324    -0.19900
F899        F  0.35138382  0.28805265  0.87878508    -0.20200
F900        F  0.41490481  0.36894463  0.88247499    -0.22900
C901        C  0.93755153  0.06599385  0.89660487    -0.05700
C902        C  0.90564820  0.06351814  0.88544192     0.00200
C903        C  0.92604876  0.10277031  0.87520812    -0.08400
C904        C  0.97931174  0.13868004  0.87552402    -0.05800
C905        C  0.01217877  0.13705393  0.88575669     0.00200
C906        C  0.99082420  0.10170347  0.89687290    -0.08300
C907        C  0.02437680  0.09867731  0.90835080     0.62100
H908        H  0.92129223  0.03698298  0.90464286     0.12800
H909        H  0.99633850  0.16661938  0.86723565     0.12800
C910        C  0.89294154  0.10618129  0.86367506     0.62300
F911        F  0.99569686  0.05999943  0.91779627    -0.22800
F912        F  0.04900539  0.14472956  0.91557491    -0.20200
F913        F  0.06084960  0.08868896  0.90263909    -0.19800
F914        F  0.84755598  0.10033050  0.86914255    -0.19900
F915        F  0.88161989  0.06835154  0.85382146    -0.20200
F916        F  0.91805324  0.15336876  0.85704225    -0.22900
C917        C  0.87303103  0.83659585  0.89445215    -0.05700
C918        C  0.85860696  0.84914100  0.88174771     0.00200
C919        C  0.87765016  0.84029544  0.86914003    -0.08400
C920        C  0.91449680  0.82436758  0.86979689    -0.05800
C921        C  0.93307492  0.81694066  0.88251269     0.00200
C922        C  0.90999765  0.82038237  0.89508721    -0.08300
C923        C  0.92430725  0.80776708  0.90914386     0.62100
H924        H  0.85731540  0.84232633  0.90397763     0.12800
H925        H  0.93155217  0.82081911  0.86024229     0.12800
C926        C  0.86091346  0.84908577  0.85491523     0.62300
F927        F  0.88831251  0.80080591  0.91920108    -0.22800
F928        F  0.97193794  0.84751083  0.91341141    -0.20200
F929        F  0.92616778  0.76273392  0.90826929    -0.19800
F930        F  0.88560939  0.90121729  0.85215234    -0.19900
F931        F  0.80792721  0.82891641  0.85450210    -0.20200
F932        F  0.87332690  0.82547177  0.84444551    -0.22900
C933        C  0.65496144  0.79449040  0.84626956    -0.05700
C934        C  0.69517948  0.84570899  0.84506765     0.00200
C935        C  0.71314103  0.86611208  0.83156428    -0.08400
C936        C  0.69033267  0.83408843  0.81987748    -0.05800
C937        C  0.65023016  0.78281190  0.82106996     0.00200
C938        C  0.63183554  0.76256526  0.83457435    -0.08300
C939        C  0.58768210  0.70795099  0.83684064     0.62100
H940        H  0.64160834  0.77939666  0.85659697     0.12800
H941        H  0.70371599  0.84925928  0.80956030     0.12800
C942        C  0.75644707  0.92109542  0.82929961     0.62300
F943        F  0.57549724  0.69736051  0.85079214    -0.22800
F944        F  0.60145284  0.67320032  0.83192714    -0.20200
F945        F  0.54371355  0.70079199  0.82997330    -0.19800
F946        F  0.80071563  0.92927921  0.83620079    -0.19900
F947        F  0.74152889  0.95501715  0.83418733    -0.20200
F948        F  0.76858729  0.93183485  0.81535196    -0.22900
C949        C  0.81278729  0.30197331  0.96036694    -0.05700
C950        C  0.82080758  0.32907259  0.94787217     0.00200
C951        C  0.79323301  0.30243951  0.93575469    -0.08400
C952        C  0.75507859  0.25025112  0.93692218    -0.05800
C953        C  0.74383111  0.22403778  0.94972162     0.00200
C954        C  0.77488976  0.24973150  0.96156977    -0.08300
C955        C  0.76687009  0.22360114  0.97562413     0.62100
H956        H  0.83492527  0.32308739  0.96944523     0.12800
H957        H  0.73214166  0.22998888  0.92786670     0.12800
C958        C  0.80191793  0.32951417  0.92184888     0.62300
F959        F  0.80168292  0.25609431  0.98556269    -0.22800
F960        F  0.77364553  0.18146977  0.97436513    -0.20200
F961        F  0.71762815  0.20806003  0.98040761    -0.19800
F962        F  0.76944805  0.29695008  0.91154009    -0.19900
F963        F  0.85236044  0.34784560  0.91766731    -0.20200
F964        F  0.79275410  0.37008889  0.92307898    -0.22900
C965        C  0.51436564  0.17597958  0.93756069    -0.05700
C966        C  0.51902996  0.15679120  0.95045389     0.00200
C967        C  0.50174661  0.17031700  0.96263188    -0.08400
C968        C  0.48708471  0.20804712  0.96167616    -0.05800
C969        C  0.48885895  0.23238946  0.94901725     0.00200
C970        C  0.49948337  0.21361359  0.93655789    -0.08300
C971        C  0.49766061  0.23425699  0.92225269     0.62100
H972        H  0.52631799  0.16416876  0.92831019     0.12800
H973        H  0.47727347  0.22104752  0.97108890     0.12800
C974        C  0.50020457  0.14656628  0.97672674     0.62300
F975        F  0.49987874  0.20402248  0.91169032    -0.22800
F976        F  0.53933142  0.28340835  0.92074514    -0.20200
F977        F  0.45198167  0.23494627  0.92059674    -0.19800
F978        F  0.54956949  0.16838503  0.98226790    -0.19900
F979        F  0.47967582  0.09402484  0.97534124    -0.20200
F980        F  0.46971304  0.15447996  0.98606826    -0.22900
C981        C  0.65531716  0.96476392  0.93071170    -0.05700
C982        C  0.63393070  0.99313614  0.92501769     0.00200
C983        C  0.63093701  0.99599149  0.91031284    -0.08400
C984        C  0.65227669  0.97275014  0.90194741    -0.05800
C985        C  0.67718239  0.94757226  0.90765944     0.00200
C986        C  0.67702276  0.94183957  0.92236844    -0.08300
C987        C  0.70119353  0.91361917  0.92943885     0.62100
H988        H  0.65659575  0.96226731  0.94194380     0.12800
H989        H  0.65157930  0.97610289  0.89073358     0.12800
C990        C  0.60816706  0.02577203  0.90338038     0.62300
F991        F  0.69457126  0.91113384  0.94373857    -0.22800
F992        F  0.75374606  0.93881113  0.92688783    -0.20200
F993        F  0.67834166  0.86371655  0.92445913    -0.19800
F994        F  0.63516074  0.07666464  0.90761627    -0.19900
F995        F  0.55670198  0.00445541  0.90694165    -0.20200
F996        F  0.61071782  0.02479459  0.88899456    -0.22900
C997        C  0.69827065  0.05348031  0.25456433    -0.05700
C998        C  0.69708791  0.04062350  0.24045245     0.00200
C999        C  0.67812731  0.98843141  0.23672776    -0.08400
C1000       C  0.65833909  0.95080267  0.24722239    -0.05800
C1001       C  0.65493554  0.96305648  0.26115221     0.00200
C1002       C  0.67662427  0.01567344  0.26500655    -0.08300
C1003       C  0.67505657  0.03249757  0.27984420     0.62100
H1004       H  0.71298943  0.09345585  0.25726485     0.12800
H1005       H  0.64199212  0.91071705  0.24438073     0.12800
C1006       C  0.67636116  0.97156213  0.22172991     0.62300
F1007       F  0.70633843  0.08512537  0.28157123    -0.22800
F1008       F  0.69215730  0.00880158  0.28908091    -0.20200
F1009       F  0.62500323  0.01980402  0.28308461    -0.19800
F1010       F  0.72304202  0.00311041  0.21528025    -0.19900
F1011       F  0.63704783  0.97374572  0.21466716    -0.20200
F1012       F  0.66705027  0.92159315  0.22088735    -0.22900
C1013       C  0.34172466  0.81046005  0.27192532    -0.05700
C1014       C  0.31895231  0.80939812  0.28471175     0.00200
C1015       C  0.35036322  0.82913885  0.29677769    -0.08400
C1016       C  0.40265195  0.84302610  0.29592980    -0.05800
C1017       C  0.42431787  0.83831872  0.28344568     0.00200
C1018       C  0.39422434  0.82500162  0.27098948    -0.08300
C1019       C  0.41621171  0.82477403  0.25677168     0.62100
H1020       H  0.31720830  0.79648070  0.26276018     0.12800
H1021       H  0.42618190  0.85502142  0.30529162     0.12800
C1022       C  0.32912918  0.83558922  0.31050505     0.62300
F1023       F  0.38265392  0.81996767  0.24611003    -0.22800
F1024       F  0.42501848  0.78385586  0.25575752    -0.20200
F1025       F  0.46193270  0.87051896  0.25478412    -0.19800
F1026       F  0.29899094  0.78825109  0.31669376    -0.19900
F1027       F  0.29967573  0.85870729  0.30821079    -0.20200
F1028       F  0.36843868  0.86631651  0.31972714    -0.22900
C1029       C  0.81852286  0.34107531  0.20142573    -0.05700
C1030       C  0.80679624  0.31621023  0.21438571     0.00200
C1031       C  0.81295596  0.34499820  0.22664701    -0.08400
C1032       C  0.83089183  0.39795386  0.22540336    -0.05800
C1033       C  0.83885340  0.42200850  0.21235409     0.00200
C1034       C  0.83230616  0.39293747  0.20006236    -0.08300
C1035       C  0.83520550  0.41445846  0.18552676     0.62100
H1036       H  0.81337526  0.31831564  0.19217144     0.12800
H1037       H  0.83565288  0.42044777  0.23468441     0.12800
C1038       C  0.79678998  0.31962879  0.24082537     0.62300
F1039       F  0.82460011  0.37815541  0.17522415    -0.22800
F1040       F  0.88422949  0.45545522  0.18316617    -0.20200
F1041       F  0.79916301  0.43034999  0.18422610    -0.19800
F1042       F  0.82705329  0.29859953  0.24450915    -0.19900
F1043       F  0.74536007  0.28137280  0.24038065    -0.20200
F1044       F  0.80212144  0.35429321  0.25112040    -0.22900
C1045       C  0.95275323  0.65517781  0.25103383    -0.05700
C1046       C  0.96492651  0.65519881  0.23690883     0.00200
C1047       C  0.01785182  0.68111949  0.23292444    -0.08400
C1048       C  0.05619631  0.70202130  0.24340955    -0.05800
C1049       C  0.04359149  0.69737379  0.25760089     0.00200
C1050       C  0.99103323  0.67575588  0.26148077    -0.08300
C1051       C  0.97472013  0.67302571  0.27657405     0.62100
H1052       H  0.91248676  0.63629473  0.25401160     0.12800
H1053       H  0.09654099  0.71945802  0.24059859     0.12800
C1054       C  0.03450189  0.68576403  0.21781498     0.62300
F1055       F  0.92385398  0.66152987  0.27761285    -0.22800
F1056       F  0.00529601  0.71990172  0.28310785    -0.20200
F1057       F  0.97932509  0.63505143  0.28346077    -0.19800
F1058       F  0.00919048  0.70489609  0.20986188    -0.19900
F1059       F  0.02320522  0.63807303  0.21278450    -0.20200
F1060       F  0.08711328  0.71881557  0.21631073    -0.22900
C1061       C  0.46381563  0.66034797  0.26959247    -0.05700
C1062       C  0.48174655  0.68090150  0.28293604     0.00200
C1063       C  0.46449887  0.64750005  0.29462462    -0.08400
C1064       C  0.42781656  0.59532256  0.29252333    -0.05800
C1065       C  0.40603207  0.57571628  0.27936496     0.00200
C1066       C  0.42537154  0.60850270  0.26756549    -0.08300
C1067       C  0.40457564  0.59011614  0.25294096     0.62100
H1068       H  0.47745637  0.68624571  0.26079456     0.12800
H1069       H  0.41312989  0.57013033  0.30144278     0.12800
C1070       C  0.48270279  0.66650863  0.30940370     0.62300
F1071       F  0.43394394  0.62611848  0.24296334    -0.22800
F1072       F  0.35459804  0.58132084  0.25187739    -0.20200
F1073       F  0.40517172  0.54534560  0.24996268    -0.19800
F1074       F  0.46841099  0.62622809  0.31862863    -0.19900
F1075       F  0.46091102  0.69507728  0.31395223    -0.20200
F1076       F  0.53602949  0.69639763  0.30983173    -0.22900
C1077       C  0.15582162  0.56532472  0.27117707    -0.05700
C1078       C  0.15957546  0.58868822  0.28414188     0.00200
C1079       C  0.17366593  0.57090757  0.29612306    -0.08400
C1080       C  0.18677983  0.53245076  0.29446255    -0.05800
C1081       C  0.18753366  0.51216888  0.28131449     0.00200
C1082       C  0.16926939  0.52688362  0.26951531    -0.08300
C1083       C  0.16569802  0.50392649  0.25518830     0.62100
H1084       H  0.14419822  0.57906034  0.26220578     0.12800
H1085       H  0.19925668  0.51969854  0.30345842     0.12800
C1086       C  0.17849521  0.59463175  0.31045711     0.62300
F1087       F  0.14623575  0.52348525  0.24531859    -0.22800
F1088       F  0.13302211  0.45124028  0.25568022    -0.20200
F1089       F  0.21421091  0.51472093  0.25088891    -0.19800
F1090       F  0.13081218  0.58662551  0.31464080    -0.19900
F1091       F  0.21351615  0.64687546  0.31002778    -0.20200
F1092       F  0.19568327  0.57330192  0.32043723    -0.22900
C1093       C  0.52044249  0.16634240  0.20330836    -0.05700
C1094       C  0.51323644  0.18758098  0.21553620     0.00200
C1095       C  0.53995070  0.18839798  0.22782638    -0.08400
C1096       C  0.57720402  0.17290031  0.22700712    -0.05800
C1097       C  0.58827994  0.15645319  0.21440220     0.00200
C1098       C  0.55716413  0.15016698  0.20248879    -0.08300
C1099       C  0.56360609  0.12875370  0.18877483     0.62100
H1100       H  0.49861119  0.16493435  0.19410383     0.12800
H1101       H  0.59975817  0.17580120  0.23618153     0.12800
C1102       C  0.53112847  0.20777148  0.24156664     0.62300
F1103       F  0.52658335  0.12269052  0.17903981    -0.22800
F1104       F  0.55863749  0.08094421  0.19094211    -0.20200
F1105       F  0.61162226  0.16185517  0.18320713    -0.19800
F1106       F  0.48022504  0.17692792  0.24553752    -0.19900
F1107       F  0.54181659  0.25800065  0.24017911    -0.20200
F1108       F  0.56236003  0.20667948  0.25210800    -0.22900
C1109       C  0.60581557  0.41901706  0.22663828    -0.05700
C1110       C  0.57726230  0.41051770  0.21420233     0.00200
C1111       C  0.60085007  0.44491586  0.20289835    -0.08400
C1112       C  0.65409238  0.48063667  0.20368992    -0.05800
C1113       C  0.68348904  0.48523911  0.21558655     0.00200
C1114       C  0.65862437  0.45639943  0.22759117    -0.08300
C1115       C  0.68827021  0.46276443  0.24103065     0.62100
H1116       H  0.58718295  0.39430961  0.23546655     0.12800
H1117       H  0.67381098  0.50424011  0.19475350     0.12800
C1118       C  0.57092919  0.44443577  0.19001023     0.62300
F1119       F  0.65631735  0.43187294  0.25155150    -0.22800
F1120       F  0.71114186  0.51326785  0.24552195    -0.20200
F1121       F  0.72606663  0.44981398  0.23883913    -0.19800
F1122       F  0.52739932  0.44627533  0.19394243    -0.19900
F1123       F  0.55663732  0.40055869  0.18222158    -0.20200
F1124       F  0.60007719  0.48651487  0.18157238    -0.22900
C1125       C  0.32645991  0.33562153  0.22933602    -0.05700
C1126       C  0.34260617  0.30284388  0.23515058     0.00200
C1127       C  0.33073004  0.28786297  0.24931172    -0.08400
C1128       C  0.30795113  0.31035343  0.25735412    -0.05800
C1129       C  0.29602259  0.34645587  0.25181689     0.00200
C1130       C  0.30302757  0.35754935  0.23737688    -0.08300
C1131       C  0.28790434  0.39377184  0.23052382     0.62100
H1132       H  0.33397907  0.34550696  0.21842807     0.12800
H1133       H  0.30110422  0.30139054  0.26833228     0.12800
C1134       C  0.34349493  0.25002975  0.25623269     0.62300
F1135       F  0.29918729  0.39983211  0.21644531    -0.22800
F1136       F  0.31437823  0.44181352  0.23671894    -0.20200
F1137       F  0.23526839  0.37420062  0.23189044    -0.19800
F1138       F  0.39651233  0.27057718  0.25673119    -0.19900
F1139       F  0.32077720  0.20424591  0.24885072    -0.20200
F1140       F  0.32529969  0.23885734  0.26974769    -0.22900
C1141       C  0.82473041  0.67167432  0.17563733    -0.05700
C1142       C  0.84045845  0.63483061  0.17455265     0.00200
C1143       C  0.84885731  0.62061623  0.16109003    -0.08400
C1144       C  0.84200733  0.64468651  0.14937342    -0.05800
C1145       C  0.82693921  0.68197085  0.15046466     0.00200
C1146       C  0.81768288  0.69559861  0.16389549    -0.08300
C1147       C  0.80116713  0.73550292  0.16607350     0.62100
H1148       H  0.81796226  0.68187912  0.18590343     0.12800
H1149       H  0.84868705  0.63442573  0.13910183     0.12800
C1150       C  0.86445684  0.58006857  0.15881611     0.62300
F1151       F  0.79314000  0.74129264  0.17998713    -0.22800
F1152       F  0.75525749  0.72074327  0.15905104    -0.20200
F1153       F  0.83923203  0.78282969  0.16127627    -0.19800
F1154       F  0.82640536  0.53318587  0.16386185    -0.19900
F1155       F  0.91086783  0.59459769  0.16552576    -0.20200
F1156       F  0.87104311  0.57340514  0.14485243    -0.22900
C1157       C  0.65879896  0.61315669  0.06882875    -0.05700
C1158       C  0.61162473  0.60609279  0.07381155     0.00200
C1159       C  0.60846261  0.61926373  0.08779354    -0.08400
C1160       C  0.65405537  0.64391106  0.09582778    -0.05800
C1161       C  0.70245419  0.65528625  0.09049779     0.00200
C1162       C  0.70426040  0.63636436  0.07704345    -0.08300
C1163       C  0.75346692  0.64103658  0.07115757     0.62100
H1164       H  0.66008257  0.60185800  0.05818904     0.12800
H1165       H  0.65232673  0.65635025  0.10629233     0.12800
C1166       C  0.55787476  0.61007597  0.09403037     0.62300
F1167       F  0.74461682  0.61514060  0.05860023    -0.22800
F1168       F  0.77341848  0.61992782  0.08038107    -0.20200
F1169       F  0.78941624  0.69217344  0.06890171    -0.19800
F1170       F  0.52234867  0.55798759  0.09397432    -0.19900
F1171       F  0.53853154  0.63570293  0.08636247    -0.20200
F1172       F  0.56395728  0.62733411  0.10766024    -0.22900
C1173       C  0.52678702  0.49865521  0.98839509    -0.05700
C1174       C  0.48240271  0.45078243  0.98586148     0.00200
C1175       C  0.44100814  0.43193234  0.99543305    -0.08400
C1176       C  0.44705263  0.46026036  0.00771528    -0.05800
C1177       C  0.49231955  0.50728451  0.01048929     0.00200
C1178       C  0.53269694  0.52733434  0.00056863    -0.08300
C1179       C  0.58246602  0.57800550  0.00295078     0.62100
H1180       H  0.55736547  0.51327977  0.98078042     0.12800
H1181       H  0.41600742  0.44604081  0.01522303     0.12800
C1182       C  0.38991527  0.38343740  0.99240110     0.62300
F1183       F  0.61911083  0.58685015  0.99293095    -0.22800
F1184       F  0.60342410  0.57758940  0.01580834    -0.20200
F1185       F  0.57243750  0.61821555  0.00245795    -0.19800
F1186       F  0.39605811  0.34086646  0.99323647    -0.19900
F1187       F  0.37275375  0.38616698  0.97917817    -0.20200
F1188       F  0.35206133  0.37694939  0.00176382    -0.22900
C1189       C  0.06827460  0.90214516  0.09964512    -0.05700
C1190       C  0.09571381  0.90880434  0.11219740     0.00200
C1191       C  0.07087371  0.87316765  0.12317768    -0.08400
C1192       C  0.01805218  0.83648354  0.12172763    -0.05800
C1193       C  0.98951599  0.83367256  0.10976317     0.00200
C1194       C  0.01545882  0.86517085  0.09821102    -0.08300
C1195       C  0.98721626  0.86176843  0.08470461     0.62100
H1196       H  0.08782331  0.92809534  0.09110788     0.12800
H1197       H  0.99765551  0.81123990  0.13033966     0.12800
C1198       C  0.09858053  0.87438886  0.13661376     0.62300
F1199       F  0.01944788  0.89742544  0.07501628    -0.22800
F1200       F  0.94691600  0.87082480  0.08721804    -0.20200
F1201       F  0.96796108  0.81329191  0.07896004    -0.19800
F1202       F  0.10989651  0.91794486  0.14421540    -0.19900
F1203       F  0.14369967  0.87416483  0.13360951    -0.20200
F1204       F  0.06867622  0.83204297  0.14489072    -0.22900
C1205       C  0.31104925  0.10640257  0.16377731    -0.05700
C1206       C  0.31138529  0.13248063  0.15159580     0.00200
C1207       C  0.33334824  0.18688229  0.15209954    -0.08400
C1208       C  0.35525654  0.21284845  0.16469816    -0.05800
C1209       C  0.35538522  0.18683641  0.17680466     0.00200
C1210       C  0.33287902  0.13246020  0.17639005    -0.08300
C1211       C  0.33326059  0.10184656  0.18896488     0.62100
H1212       H  0.29375689  0.06499014  0.16331146     0.12800
H1213       H  0.37268208  0.25427793  0.16520742     0.12800
C1214       C  0.33297694  0.21793113  0.13962821     0.62300
F1215       F  0.31316148  0.05026648  0.18584039    -0.22800
F1216       F  0.30361487  0.10516381  0.19948367    -0.20200
F1217       F  0.38346502  0.12083973  0.19365957    -0.19800
F1218       F  0.28279306  0.19899783  0.13492591    -0.19900
F1219       F  0.36290876  0.21526803  0.12908716    -0.20200
F1220       F  0.35284644  0.26937493  0.14290206    -0.22900
C1221       C  0.48428895  0.78666877  0.06063535    -0.05700
C1222       C  0.47768948  0.80461126  0.04777340     0.00200
C1223       C  0.49004885  0.78757130  0.03535135    -0.08400
C1224       C  0.50259891  0.74837125  0.03623970    -0.05800
C1225       C  0.50268171  0.72556823  0.04901659     0.00200
C1226       C  0.49625728  0.74706876  0.06154469    -0.08300
C1227       C  0.49986149  0.72763762  0.07586127     0.62100
H1228       H  0.47590302  0.80108116  0.07002184     0.12800
H1229       H  0.50891501  0.73287092  0.02674569     0.12800
C1230       C  0.48848083  0.80904463  0.02112689     0.62300
F1231       F  0.50124800  0.75991248  0.08636682    -0.22800
F1232       F  0.54463551  0.72498419  0.07687187    -0.20200
F1233       F  0.45725197  0.67962967  0.07807145    -0.19800
F1234       F  0.51255814  0.86214143  0.02174675    -0.19900
F1235       F  0.43777680  0.78916668  0.01680128    -0.20200
F1236       F  0.51370593  0.79638261  0.01118830    -0.22900
C1237       C  0.36368632  0.01239985  0.06980346    -0.05700
C1238       C  0.37722484  0.97759861  0.07542812     0.00200
C1239       C  0.37183445  0.96767980  0.08993419    -0.08400
C1240       C  0.35067824  0.99139322  0.09813254    -0.05800
C1241       C  0.33243880  0.02240151  0.09228896     0.00200
C1242       C  0.34056611  0.03448914  0.07786474    -0.08300
C1243       C  0.32254539  0.06787464  0.07066277     0.62100
H1244       H  0.36868161  0.01983821  0.05871901     0.12800
H1245       H  0.34536579  0.98323258  0.10917301     0.12800
C1246       C  0.38445666  0.92937178  0.09663151     0.62300
F1247       F  0.33518879  0.07465803  0.05666807    -0.22800
F1248       F  0.34570702  0.11598352  0.07683886    -0.20200
F1249       F  0.26935909  0.04494725  0.07156553    -0.19800
F1250       F  0.43656011  0.94622886  0.09521856    -0.19900
F1251       F  0.35574298  0.88175472  0.09031535    -0.20200
F1252       F  0.37311848  0.92323437  0.11070647    -0.22900
C1253       C  0.52681893  0.98138826  0.01238687    -0.05700
C1254       C  0.47407289  0.96626937  0.01275168     0.00200
C1255       C  0.45025095  0.97259027  0.00067683    -0.08400
C1256       C  0.48001984  0.99227441  0.98855196    -0.05800
C1257       C  0.53275234  0.00727357  0.98817549     0.00200
C1258       C  0.55678562  0.00188939  0.00033946    -0.08300
C1259       C  0.61327252  0.01619525  0.00063918     0.62100
H1260       H  0.54449647  0.97624042  0.02165854     0.12800
H1261       H  0.46227189  0.99700717  0.97923630     0.12800
C1262       C  0.39436176  0.96044899  0.00058758     0.62300
F1263       F  0.62626756  0.00073608  0.01286006    -0.22800
F1264       F  0.64445856  0.06894916  0.99964679    -0.20200
F1265       F  0.62325550  0.99263693  0.98966987    -0.19800
F1266       F  0.38615824  0.98485507  0.01168604    -0.19900
F1267       F  0.36139338  0.90794599  0.00153702    -0.20200
F1268       F  0.38195644  0.97709059  0.98849014    -0.22900
C1269       C  0.88143475  0.15725496  0.16583245    -0.05700
C1270       C  0.86423470  0.16655015  0.15309287     0.00200
C1271       C  0.82033762  0.17301309  0.15295723    -0.08400
C1272       C  0.79334981  0.16643839  0.16546242    -0.05800
C1273       C  0.80971673  0.15584455  0.17817028     0.00200
C1274       C  0.85541898  0.15234582  0.17844206    -0.08300
C1275       C  0.87656872  0.14269314  0.19182615     0.62100
H1276       H  0.91542280  0.15316466  0.16580728     0.12800
H1277       H  0.75933048  0.17048617  0.16541848     0.12800
C1278       C  0.80297674  0.18885066  0.13988386     0.62300
F1279       F  0.91876379  0.13645233  0.18943427    -0.22800
F1280       F  0.83877775  0.09845094  0.19813609    -0.20200
F1281       F  0.89246709  0.18408515  0.20077137    -0.19800
F1282       F  0.78214211  0.14873196  0.13040421    -0.19900
F1283       F  0.84469059  0.23125526  0.13398347    -0.20200
F1284       F  0.76570229  0.20205646  0.14273052    -0.22900
C1285       C  0.85876937  0.92820524  0.10107292    -0.05700
C1286       C  0.83161942  0.89691492  0.11243310     0.00200
C1287       C  0.81475447  0.91766709  0.12315635    -0.08400
C1288       C  0.83108195  0.97050640  0.12283062    -0.05800
C1289       C  0.86167242  0.00235765  0.11199873     0.00200
C1290       C  0.87402107  0.98064204  0.10061409    -0.08300
C1291       C  0.90564833  0.01301661  0.08839786     0.62100
H1292       H  0.87036931  0.91185642  0.09276442     0.12800
H1293       H  0.82151927  0.98789622  0.13134130     0.12800
C1294       C  0.77983638  0.88498181  0.13488609     0.62300
F1295       F  0.91449945  0.98424370  0.07868597    -0.22800
F1296       F  0.95311923  0.05196050  0.09305915    -0.20200
F1297       F  0.87942599  0.03408087  0.08175752    -0.19800
F1298       F  0.80680750  0.87090771  0.14390305    -0.19900
F1299       F  0.73774770  0.84141693  0.12942056    -0.20200
F1300       F  0.76113482  0.91126602  0.14252599    -0.22900
C1301       C  0.14469929  0.14447336  0.12591173    -0.05700
C1302       C  0.15384128  0.12748888  0.11321026     0.00200
C1303       C  0.12953114  0.13141291  0.10096520    -0.08400
C1304       C  0.09217339  0.14684052  0.10222186    -0.05800
C1305       C  0.07927069  0.15921051  0.11523184     0.00200
C1306       C  0.10841896  0.16093998  0.12719182    -0.08300
C1307       C  0.10070391  0.17813594  0.14142310     0.62100
H1308       H  0.16497866  0.14261951  0.13508458     0.12800
H1309       H  0.07119867  0.14727903  0.09304134     0.12800
C1310       C  0.14146172  0.11760478  0.08678401     0.62300
F1311       F  0.13708697  0.18168154  0.15103592    -0.22800
F1312       F  0.05238805  0.14315705  0.14647319    -0.20200
F1313       F  0.10549385  0.22627771  0.14040994    -0.19800
F1314       F  0.13014797  0.06694496  0.08669140    -0.19900
F1315       F  0.19330087  0.14945498  0.08387091    -0.20200
F1316       F  0.11300803  0.12348410  0.07626002    -0.22900
C1317       C  0.04482277  0.49862844  0.00051247    -0.05700
C1318       C  0.01731843  0.49054132  0.01298014     0.00200
C1319       C  0.96894670  0.48881051  0.01255020    -0.08400
C1320       C  0.94911584  0.49295214  0.99954695    -0.05800
C1321       C  0.97603231  0.49968022  0.98702172     0.00200
C1322       C  0.02567103  0.50417743  0.98757399    -0.08300
C1323       C  0.05925788  0.51601739  0.97473017     0.62100
H1324       H  0.08222054  0.50112507  0.00098074     0.12800
H1325       H  0.91164137  0.49028024  0.99906762     0.12800
C1326       C  0.93782080  0.48208478  0.02564250     0.62300
F1327       F  0.10883573  0.52677489  0.97807402    -0.22800
F1328       F  0.06327762  0.55861792  0.96800832    -0.20200
F1329       F  0.03793448  0.47423171  0.96578757    -0.19800
F1330       F  0.96441282  0.52462406  0.03419581    -0.19900
F1331       F  0.92928194  0.43828655  0.03265280    -0.20200
F1332       F  0.89013174  0.47707930  0.02267434    -0.22900
C1333       C  0.30772395  0.49641720  0.03897365    -0.05700
C1334       C  0.33568034  0.51080749  0.05152218     0.00200
C1335       C  0.31006532  0.50854295  0.06409389    -0.08400
C1336       C  0.25770940  0.49535297  0.06339073    -0.05800
C1337       C  0.23102269  0.48550293  0.05059744     0.00200
C1338       C  0.25610519  0.48466301  0.03815805    -0.08300
C1339       C  0.23051013  0.47525742  0.02388683     0.62100
H1340       H  0.32794552  0.49743593  0.02954290     0.12800
H1341       H  0.23789706  0.49521256  0.07281295     0.12800
C1342       C  0.33832386  0.52298233  0.07800738     0.62300
F1343       F  0.26299761  0.47772683  0.01331357    -0.22800
F1344       F  0.21693504  0.51226243  0.02122385    -0.20200
F1345       F  0.18703820  0.42684743  0.02341970    -0.19800
F1346       F  0.37852474  0.57330128  0.07760663    -0.19900
F1347       F  0.35776146  0.49071741  0.08083723    -0.20200
F1348       F  0.30609472  0.51879215  0.08885558    -0.22900
C1349       C  0.24331785  0.72460508  0.06346039    -0.05700
C1350       C  0.25585172  0.75069951  0.05060898     0.00200
C1351       C  0.22314829  0.72651240  0.03888956    -0.08400
C1352       C  0.18310518  0.67524324  0.04016655    -0.05800
C1353       C  0.17446063  0.64770526  0.05259246     0.00200
C1354       C  0.20294052  0.67331533  0.06467957    -0.08300
C1355       C  0.19266865  0.64588704  0.07857732     0.62100
H1356       H  0.26711152  0.74386661  0.07248286     0.12800
H1357       H  0.16002690  0.65489429  0.03112448     0.12800
C1358       C  0.23157986  0.75266109  0.02481918     0.62300
F1359       F  0.22532568  0.67772810  0.08896425    -0.22800
F1360       F  0.19989784  0.60399355  0.07744420    -0.20200
F1361       F  0.14235893  0.62934896  0.08258194    -0.19800
F1362       F  0.27736223  0.76039408  0.01913204    -0.19900
F1363       F  0.23321653  0.79925749  0.02633186    -0.20200
F1364       F  0.19209194  0.72335164  0.01548675    -0.22900
C1365       C  0.98386305  0.32917669  0.09823231    -0.05700
C1366       C  0.96143868  0.27979283  0.09229667     0.00200
C1367       C  0.95598492  0.27447517  0.07759338    -0.08400
C1368       C  0.97731077  0.31926850  0.06940727    -0.05800
C1369       C  0.00359642  0.36880538  0.07531290     0.00200
C1370       C  0.00523812  0.37399743  0.09004308    -0.08300
C1371       C  0.03184960  0.42616122  0.09722492     0.62100
H1372       H  0.98662359  0.33247752  0.10947655     0.12800
H1373       H  0.97526574  0.31587384  0.05816509     0.12800
C1374       C  0.92993559  0.22224187  0.07042258     0.62300
F1375       F  0.02859291  0.42181500  0.11159117    -0.22800
F1376       F  0.00878691  0.45418598  0.09317512    -0.20200
F1377       F  0.08366831  0.45257220  0.09375806    -0.19800
F1378       F  0.87903561  0.19401549  0.07465429    -0.19900
F1379       F  0.95565497  0.19601559  0.07370930    -0.20200
F1380       F  0.92988598  0.22649579  0.05606270    -0.22900
C1381       C  0.49382238  0.94062231  0.49576433    -0.05700
C1382       C  0.51487285  0.96950380  0.50799532     0.00200
C1383       C  0.52753500  0.02182071  0.50826553    -0.08400
C1384       C  0.52095199  0.04377430  0.49598831    -0.05800
C1385       C  0.50133853  0.01515876  0.48363908     0.00200
C1386       C  0.48592526  0.96214292  0.48363296    -0.08300
C1387       C  0.46020446  0.92778655  0.47105244     0.62100
H1388       H  0.48311600  0.90043448  0.49580334     0.12800
H1389       H  0.53202335  0.08403044  0.49587637     0.12800
C1390       C  0.54882433  0.05484574  0.52126856     0.62300
F1391       F  0.43909419  0.87622653  0.47429567    -0.22800
F1392       F  0.49616000  0.93931203  0.46065297    -0.20200
F1393       F  0.42057557  0.93489865  0.46615656    -0.19800
F1394       F  0.59162284  0.05317950  0.52612716    -0.19900
F1395       F  0.51128165  0.03697171  0.53144934    -0.20200
F1396       F  0.56373961  0.10580288  0.51873538    -0.22900
C1397       C  0.12532281  0.80440456  0.34470588    -0.05700
C1398       C  0.16119991  0.85741233  0.34519693     0.00200
C1399       C  0.18965997  0.88228495  0.33303514    -0.08400
C1400       C  0.18256646  0.85246997  0.32107156    -0.05800
C1401       C  0.14792353  0.79927593  0.32071631     0.00200
C1402       C  0.11755739  0.77481943  0.33261499    -0.08300
C1403       C  0.07647967  0.71818900  0.33259551     0.62100
H1404       H  0.10311685  0.78606155  0.35395247     0.12800
H1405       H  0.20513256  0.87063308  0.31186309     0.12800
C1406       C  0.22809343  0.93971766  0.33256223     0.62300
F1407       F  0.04541777  0.70507190  0.34426590    -0.22800
F1408       F  0.09968789  0.68827920  0.33246519    -0.20200
F1409       F  0.04486950  0.70696691  0.32099742    -0.19800
F1410       F  0.26448064  0.95303992  0.34307824    -0.19900
F1411       F  0.20226624  0.96686799  0.33410424    -0.20200
F1412       F  0.25429328  0.95442864  0.32004342    -0.22900
C1413       C  0.34512060  0.98605496  0.39961664    -0.05700
C1414       C  0.29646985  0.95728372  0.40596309     0.00200
C1415       C  0.29452362  0.94647427  0.42042323    -0.08400
C1416       C  0.34087910  0.96997142  0.42818316    -0.05800
C1417       C  0.38889047  0.00288079  0.42204326     0.00200
C1418       C  0.39153921  0.00915429  0.40736845    -0.08300
C1419       C  0.44243929  0.04202990  0.39990825     0.62100
H1420       H  0.34651113  0.99267133  0.38850852     0.12800
H1421       H  0.33964641  0.96449636  0.43935522     0.12800
C1422       C  0.24417292  0.91165862  0.42787630     0.62300
F1423       F  0.43568968  0.04348506  0.38566748    -0.22800
F1424       F  0.47475839  0.02209084  0.40210163    -0.20200
F1425       F  0.46586442  0.09196958  0.40485666    -0.19800
F1426       F  0.21652327  0.86579777  0.42065580    -0.19900
F1427       F  0.21517079  0.93574751  0.42889194    -0.20200
F1428       F  0.25264818  0.89992374  0.44122759    -0.22900
C1429       C  0.18186863  0.09632537  0.36917290    -0.05700
C1430       C  0.18393644  0.07742425  0.38240128     0.00200
C1431       C  0.17954157  0.10250032  0.39442520    -0.08400
C1432       C  0.16504658  0.14008659  0.39269406    -0.05800
C1433       C  0.15592353  0.15353067  0.37943573     0.00200
C1434       C  0.16860799  0.13465741  0.36746650    -0.08300
C1435       C  0.16660421  0.15324039  0.35287919     0.62100
H1436       H  0.18720969  0.07848573  0.36000647     0.12800
H1437       H  0.15717691  0.15650878  0.40176297     0.12800
C1438       C  0.18873410  0.08932389  0.40902354     0.62300
F1439       F  0.19506577  0.14209337  0.34362911    -0.22800
F1440       F  0.18710805  0.20602811  0.35288908    -0.20200
F1441       F  0.11602137  0.12944214  0.34815683    -0.19800
F1442       F  0.23316068  0.08579608  0.40932848    -0.19900
F1443       F  0.14700163  0.04315253  0.41316447    -0.20200
F1444       F  0.19514516  0.12677156  0.41854144    -0.22900
C1445       C  0.12278790  0.28659003  0.32819022    -0.05700
C1446       C  0.14835146  0.30805819  0.34086560     0.00200
C1447       C  0.19936014  0.35109963  0.34059429    -0.08400
C1448       C  0.22233802  0.37083528  0.32761374    -0.05800
C1449       C  0.19651406  0.34978267  0.31494785     0.00200
C1450       C  0.14579704  0.30645327  0.31520932    -0.08300
C1451       C  0.11579311  0.28059848  0.30197830     0.62100
H1452       H  0.08416435  0.25357390  0.32850629     0.12800
H1453       H  0.26093998  0.40387657  0.32728862     0.12800
C1454       C  0.22977083  0.37700141  0.35379102     0.62300
F1455       F  0.07031671  0.23539927  0.30473995    -0.22800
F1456       F  0.14535675  0.26852528  0.29342646    -0.20200
F1457       F  0.10295646  0.31309954  0.29506710    -0.19800
F1458       F  0.24128206  0.34382961  0.36086774    -0.19900
F1459       F  0.20122431  0.39075878  0.36222428    -0.20200
F1460       F  0.27603180  0.42129541  0.35095824    -0.22900
C1461       C  0.03491268  0.35456651  0.39908495    -0.05700
C1462       C  0.05657221  0.32563687  0.40415773     0.00200
C1463       C  0.06147992  0.32193003  0.41877292    -0.08400
C1464       C  0.03822625  0.34165050  0.42766151    -0.05800
C1465       C  0.01121069  0.36536463  0.42249689     0.00200
C1466       C  0.01253536  0.37514789  0.40798163    -0.08300
C1467       C  0.98847593  0.40474846  0.40167844     0.62100
H1468       H  0.03329252  0.35873761  0.38792152     0.12800
H1469       H  0.03885306  0.33639544  0.43880431     0.12800
C1470       C  0.08844597  0.29508118  0.42508370     0.62300
F1471       F  0.99716871  0.41198869  0.38749176    -0.22800
F1472       F  0.00981945  0.45285399  0.40780899    -0.20200
F1473       F  0.93559209  0.37801479  0.40371276    -0.19800
F1474       F  0.13869773  0.31772494  0.42029344    -0.19900
F1475       F  0.06204245  0.24350073  0.42150515    -0.20200
F1476       F  0.09071550  0.29847033  0.43947944    -0.22900
C1477       C  0.75173488  0.21819924  0.45956257    -0.05700
C1478       C  0.77559299  0.24127684  0.44691411     0.00200
C1479       C  0.74722418  0.22147258  0.43428681    -0.08400
C1480       C  0.69389835  0.18598579  0.43500122    -0.05800
C1481       C  0.66898485  0.16821634  0.44778330     0.00200
C1482       C  0.69890907  0.18088461  0.46017917    -0.08300
C1483       C  0.67567544  0.15405688  0.47388247     0.62100
H1484       H  0.77408591  0.23124507  0.46912338     0.12800
H1485       H  0.67073254  0.17409050  0.42555602     0.12800
C1486       C  0.77235977  0.23718086  0.42008251     0.62300
F1487       F  0.64866683  0.10135804  0.47180059    -0.22800
F1488       F  0.64260199  0.16953915  0.47908994    -0.20200
F1489       F  0.71349645  0.16490457  0.48384430    -0.19800
F1490       F  0.81768955  0.23528465  0.42004150    -0.19900
F1491       F  0.78284729  0.28633873  0.41688009    -0.20200
F1492       F  0.74053343  0.20437977  0.40971050    -0.22900
C1493       C  0.01594476  0.51384209  0.48453991    -0.05700
C1494       C  0.99547165  0.46022671  0.48469461     0.00200
C1495       C  0.99947166  0.43663834  0.49709494    -0.08400
C1496       C  0.02107884  0.46730421  0.50903693    -0.05800
C1497       C  0.04074083  0.52067522  0.50894755     0.00200
C1498       C  0.03911200  0.54478266  0.49638215    -0.08300
C1499       C  0.06083308  0.60256570  0.49537273     0.62100
H1500       H  0.01330234  0.53158254  0.47499548     0.12800
H1501       H  0.02374850  0.44962526  0.51859442     0.12800
C1502       C  0.98287981  0.37987577  0.49778437     0.62300
F1503       F  0.05039281  0.61673191  0.48257541    -0.22800
F1504       F  0.11397176  0.62806005  0.49705912    -0.20200
F1505       F  0.03914285  0.61843379  0.50553084    -0.19800
F1506       F  0.00626804  0.36781527  0.48719234    -0.19900
F1507       F  0.92974421  0.35022564  0.49652619    -0.20200
F1508       F  0.99699319  0.36717372  0.51027663    -0.22900
C1509       C  0.77191179  0.47931000  0.43366575    -0.05700
C1510       C  0.75265406  0.48615816  0.44633952     0.00200
C1511       C  0.77546556  0.48292514  0.45904206    -0.08400
C1512       C  0.81320593  0.46815769  0.45854789    -0.05800
C1513       C  0.82935885  0.45718776  0.44595318     0.00200
C1514       C  0.81046027  0.46538213  0.43320616    -0.08300
C1515       C  0.82895380  0.45743404  0.41921797     0.62100
H1516       H  0.75510613  0.48324890  0.42404907     0.12800
H1517       H  0.82931251  0.46321654  0.46816124     0.12800
C1518       C  0.75894570  0.49256274  0.47315266     0.62300
F1519       F  0.80560057  0.46792190  0.40820140    -0.22800
F1520       F  0.81762556  0.40695666  0.41794861    -0.20200
F1521       F  0.88174950  0.49001649  0.41814465    -0.19800
F1522       F  0.70712663  0.45785764  0.47527993    -0.19900
F1523       F  0.76744078  0.54222619  0.47370595    -0.20200
F1524       F  0.78654100  0.48710445  0.48400373    -0.22900
C1525       C  0.52968789  0.31065802  0.42881415    -0.05700
C1526       C  0.52184284  0.33231592  0.44077827     0.00200
C1527       C  0.49425559  0.30011126  0.45203997    -0.08400
C1528       C  0.48539969  0.24958301  0.45222124    -0.05800
C1529       C  0.50066194  0.22978471  0.44110223     0.00200
C1530       C  0.51850784  0.25921426  0.42862592    -0.08300
C1531       C  0.52766438  0.23797315  0.41527941     0.62100
H1532       H  0.54894583  0.33549923  0.42003647     0.12800
H1533       H  0.46879976  0.22637319  0.46143865     0.12800
C1534       C  0.47583209  0.31930793  0.46408929     0.62300
F1535       F  0.48537254  0.19023288  0.41239307    -0.22800
F1536       F  0.57160413  0.23394969  0.41659577    -0.20200
F1537       F  0.53437511  0.26948524  0.40401278    -0.19800
F1538       F  0.46173584  0.35419531  0.45942597    -0.19900
F1539       F  0.51468638  0.34266642  0.47395602    -0.20200
F1540       F  0.43296754  0.27903000  0.47030304    -0.22900
C1541       C  0.48664633  0.45660198  0.48192167    -0.05700
C1542       C  0.54029758  0.49068719  0.48183517     0.00200
C1543       C  0.56532693  0.51772054  0.49422224    -0.08400
C1544       C  0.53522777  0.51043029  0.50613663    -0.05800
C1545       C  0.48154913  0.47657392  0.50619427     0.00200
C1546       C  0.45682047  0.44821304  0.49396610    -0.08300
C1547       C  0.39961781  0.40828063  0.49363713     0.62100
H1548       H  0.46813539  0.43577532  0.47245525     0.12800
H1549       H  0.55359882  0.53161308  0.51557214     0.12800
C1550       C  0.62331419  0.55459705  0.49494516     0.62300
F1551       F  0.38621353  0.37802211  0.48176055    -0.22800
F1552       F  0.37062318  0.43251002  0.49387722    -0.20200
F1553       F  0.38724621  0.37599363  0.50501348    -0.19800
F1554       F  0.63827229  0.58980855  0.48420330    -0.19900
F1555       F  0.64920987  0.52734003  0.49394676    -0.20200
F1556       F  0.63811311  0.58184202  0.50735770    -0.22900
C1557       C  0.99385197  0.87005052  0.39906929    -0.05700
C1558       C  0.01275816  0.85719402  0.38738044     0.00200
C1559       C  0.97904314  0.82962211  0.37625255    -0.08400
C1560       C  0.92769107  0.81901642  0.37675551    -0.05800
C1561       C  0.90977261  0.83685229  0.38773469     0.00200
C1562       C  0.94294677  0.86132224  0.39941956    -0.08300
C1563       C  0.92670702  0.88131615  0.41183684     0.62100
H1564       H  0.02083470  0.89120546  0.40740498     0.12800
H1565       H  0.90202554  0.79931840  0.36806462     0.12800
C1566       C  0.99778106  0.81270418  0.36372565     0.62300
F1567       F  0.88349596  0.84133511  0.41798087    -0.22800
F1568       F  0.91598608  0.91899994  0.40754501    -0.20200
F1569       F  0.96514381  0.90291928  0.42191358    -0.19800
F1570       F  0.02151992  0.78575089  0.36817679    -0.19900
F1571       F  0.03268629  0.85509131  0.35619888    -0.20200
F1572       F  0.95748570  0.78111871  0.35487765    -0.22900
C1573       C  0.87608113  0.01832916  0.39546325    -0.05700
C1574       C  0.84861404  0.99445146  0.38329901     0.00200
C1575       C  0.85737805  0.02397402  0.37108549    -0.08400
C1576       C  0.89959465  0.07441650  0.37079845    -0.05800
C1577       C  0.93161958  0.09677931  0.38252836     0.00200
C1578       C  0.91729167  0.06948553  0.39539880    -0.08300
C1579       C  0.94604827  0.09256605  0.40896559     0.62100
H1580       H  0.86782711  0.99525713  0.40478605     0.12800
H1581       H  0.90893524  0.09563185  0.36111589     0.12800
C1582       C  0.82420837  0.00201775  0.35809103     0.62300
F1583       F  0.91980942  0.06246274  0.42030525    -0.22800
F1584       F  0.95136379  0.14058789  0.41102307    -0.20200
F1585       F  0.99422186  0.09662925  0.40860765    -0.19800
F1586       F  0.77385129  0.96607338  0.36151519    -0.19900
F1587       F  0.84455944  0.97902098  0.34976737    -0.20200
F1588       F  0.82262861  0.04051774  0.35055777    -0.22900
C1589       C  0.66707107  0.65907523  0.39849182    -0.05700
C1590       C  0.68269341  0.70642841  0.40516497     0.00200
C1591       C  0.67738121  0.70701749  0.41986476    -0.08400
C1592       C  0.65818609  0.66043205  0.42723842    -0.05800
C1593       C  0.64558675  0.61381106  0.42062010     0.00200
C1594       C  0.65003412  0.61300252  0.40592198    -0.08300
C1595       C  0.64085029  0.56507427  0.39809702     0.62100
H1596       H  0.67084666  0.65878669  0.38729310     0.12800
H1597       H  0.65448533  0.66036234  0.43845482     0.12800
C1598       C  0.69368638  0.75634680  0.42795413     0.62300
F1599       F  0.65113518  0.57423978  0.38401281    -0.22800
F1600       F  0.58987263  0.52666093  0.39939382    -0.20200
F1601       F  0.67298965  0.54830843  0.40341108    -0.19800
F1602       F  0.66616225  0.77917251  0.42323200    -0.19900
F1603       F  0.74608443  0.78974055  0.42628906    -0.20200
F1604       F  0.68450458  0.74749008  0.44208557    -0.22900
C1605       C  0.61876799  0.83302815  0.33422540    -0.05700
C1606       C  0.64666003  0.84605363  0.32172001     0.00200
C1607       C  0.69794197  0.85483539  0.32174319    -0.08400
C1608       C  0.71909231  0.84966091  0.33435487    -0.05800
C1609       C  0.69088737  0.83590421  0.34681288     0.00200
C1610       C  0.63973692  0.82737088  0.34679570    -0.08300
C1611       C  0.60661982  0.81087232  0.35980806     0.62100
H1612       H  0.57961293  0.82625016  0.33403240     0.12800
H1613       H  0.75826556  0.85649119  0.33458209     0.12800
C1614       C  0.73064782  0.87008838  0.30865139     0.62300
F1615       F  0.55572030  0.79653478  0.35688397    -0.22800
F1616       F  0.62564367  0.85114463  0.36924168    -0.20200
F1617       F  0.60688386  0.76909340  0.36579138    -0.19800
F1618       F  0.73086738  0.91178064  0.30244616    -0.19900
F1619       F  0.71085444  0.82915788  0.29942281    -0.20200
F1620       F  0.78143982  0.88383369  0.31150546    -0.22900
loop_ 
_geom_bond_atom_site_label_1 
_geom_bond_atom_site_label_2 
_geom_bond_distance 
_geom_bond_site_symmetry_2 
_ccdc_geom_bond_type 
In1           O3   2.223       .  S
In1           O4   2.243       .  S
In1          O12   2.220       .  S
In1           O6   2.259       .  S
In1           O8   2.260       .  S
In1           O9   2.232       .  S
In1          O10   2.204       .  S
In1          O13   2.227       .  S
C2            O8   1.270       .  A
C2           O10   1.259       .  A
C2         C1574   1.475       .  S
O3           C11   1.259       .  A
O4           C11   1.267       .  A
C5           O12   1.263       .  A
C5            O6   1.267       .  A
C5         C1590   1.496       .  S
C7            O9   1.266       .  A
C7           O13   1.263       .  A
C7         C1609   1.483       .  S
C11        C1561   1.490       .  S
In14         O16   2.251       .  S
In14         O17   2.245       .  S
In14         O25   2.246       .  S
In14         O19   2.259       .  S
In14         O21   2.270       .  S
In14         O22   2.229       .  S
In14         O23   2.217       .  S
In14         O26   2.251       .  S
C15          O21   1.265       .  A
C15          O23   1.257       .  A
C15        C1526   1.475       .  S
O16          C24   1.260       .  A
O17          C24   1.258       .  A
C18          O25   1.260       .  A
C18          O19   1.260       .  A
C18        C1593   1.491       .  S
C20          O22   1.260       .  A
C20          O26   1.265       .  A
C20        C1542   1.485       .  S
C24        C1510   1.487       .  S
In27         O29   2.233       .  S
In27         O30   2.260       .  S
In27         O38   2.240       .  S
In27         O32   2.242       .  S
In27         O34   2.258       .  S
In27         O35   2.237       .  S
In27         O36   2.215       .  S
In27         O39   2.242       .  S
C28          O34   1.264       .  A
C28          O36   1.260       .  A
C28        C1513   1.483       .  S
O29          C37   1.258       .  A
O30          C37   1.264       .  A
C31          O38   1.262       .  A
C31          O32   1.260       .  A
C31        C1465   1.489   1_655  S
C33          O35   1.261       .  A
C33          O39   1.262       .  A
C33        C1494   1.490       .  S
C37        C1478   1.491       .  S
In40         O42   2.226       .  S
In40         O43   2.265   1_455  S
In40         O51   2.234       .  S
In40         O45   2.238       .  S
In40         O47   2.250       .  S
In40         O48   2.246       .  S
In40         O49   2.208       .  S
In40         O52   2.229       .  S
C41          O47   1.264       .  A
C41          O49   1.259       .  A
C41        C1433   1.475       .  S
O42          C50   1.257   1_455  A
O43          C50   1.265       .  A
C44          O51   1.263       .  A
C44          O45   1.260       .  A
C44        C1462   1.486       .  S
C46          O48   1.265       .  A
C46          O52   1.259       .  A
C46        C1446   1.490       .  S
C50        C1577   1.493       .  S
In53         O55   2.242       .  S
In53         O56   2.237   1_565  S
In53         O64   2.241       .  S
In53         O58   2.252       .  S
In53         O60   2.271       .  S
In53         O61   2.219       .  S
In53         O62   2.202       .  S
In53         O65   2.248       .  S
C54          O60   1.266       .  A
C54          O62   1.256       .  A
C54        C1558   1.469       .  S
O55          C63   1.259   1_565  A
O56          C63   1.261       .  A
C57          O64   1.260       .  A
C57          O58   1.261       .  A
C57        C1414   1.494       .  S
C59          O61   1.259       .  A
C59          O65   1.265       .  A
C59        C1398   1.486       .  S
C63        C1430   1.483       .  S
In66         O68   2.231       .  S
In66         O69   2.258       .  S
In66         O77   2.227       .  S
In66         O71   2.253       .  S
In66         O73   2.262       .  S
In66         O74   2.252       .  S
In66         O75   2.215       .  S
In66         O78   2.229       .  S
C67          O73   1.267       .  A
C67          O75   1.258       .  A
C67        C1481   1.479       .  S
O68          C76   1.258       .  A
O69          C76   1.266       .  A
C70          O77   1.263       .  A
C70          O71   1.265       .  A
C70        C1417   1.488       .  S
C72          O74   1.266       .  A
C72          O78   1.261       .  A
C72        C1385   1.488       .  S
C76        C1529   1.492       .  S
In79         O81   2.243       .  S
In79         O82   2.229       .  S
In79         O90   2.233       .  S
In79         O84   2.256       .  S
In79         O86   2.264       .  S
In79         O87   2.245       .  S
In79         O88   2.206       .  S
In79         O91   2.243       .  S
C80          O86   1.266       .  A
C80          O88   1.259       .  A
C80        C1353   1.477       .  S
O81          C89   1.261       .  A
O82          C89   1.261       .  A
C83          O90   1.261       .  A
C83          O84   1.262       .  A
C83        C1369   1.490       .  S
C85          O87   1.262       .  A
C85          O91   1.261       .  A
C85        C1318   1.494       .  S
C89        C1337   1.485       .  S
In92         O94   2.255   1_655  S
In92         O95   2.248   1_655  S
In92        O103   2.237       .  S
In92         O97   2.248       .  S
In92         O99   2.254       .  S
In92        O100   2.249       .  S
In92        O101   2.228       .  S
In92        O104   2.240       .  S
C93          O99   1.263       .  A
C93         O101   1.258       .  A
C93        C1289   1.477       .  S
O94         C102   1.259       .  A
O95         C102   1.261       .  A
C96         O103   1.262       .  A
C96          O97   1.261       .  A
C96        C1366   1.488       .  S
C98         O100   1.264       .  A
C98         O104   1.261       .  A
C98        C1270   1.489       .  S
C102       C1305   1.496       .  S
In105       O107   2.244       .  S
In105       O108   2.239       .  S
In105       O116   2.223       .  S
In105       O110   2.256       .  S
In105       O112   2.257       .  S
In105       O113   2.231       .  S
In105       O114   2.210       .  S
In105       O117   2.234       .  S
C106        O112   1.267       .  A
C106        O114   1.256       .  A
C106       C1222   1.479       .  S
O107        C115   1.261       .  A
O108        C115   1.261       .  A
C109        O116   1.261       .  A
C109        O110   1.263       .  A
C109       C1238   1.484       .  S
C111        O113   1.261       .  A
C111        O117   1.264       .  A
C111       C1254   1.486       .  S
C115       C1350   1.492       .  S
In118       O120   2.236   1_545  S
In118       O121   2.250   1_545  S
In118       O129   2.234       .  S
In118       O123   2.250       .  S
In118       O125   2.266       .  S
In118       O126   2.251       .  S
In118       O127   2.206       .  S
In118       O130   2.228       .  S
C119        O125   1.267       .  A
C119        O127   1.260       .  A
C119       C1302   1.483       .  S
O120        C128   1.262       .  A
O121        C128   1.264       .  A
C122        O129   1.262       .  A
C122        O123   1.263       .  A
C122       C1241   1.494       .  S
C124        O126   1.266       .  A
C124        O130   1.260       .  A
C124       C1206   1.491       .  S
C128       C1190   1.495       .  S
In131       O133   2.234       .  S
In131       O134   2.256       .  S
In131       O142   2.244       .  S
In131       O136   2.254       .  S
In131       O138   2.265       .  S
In131       O139   2.237       .  S
In131       O140   2.202       .  S
In131       O143   2.258       .  S
C132        O138   1.265       .  A
C132        O140   1.260       .  A
C132       C1334   1.479       .  S
O133        C141   1.257       .  A
O134        C141   1.263       .  A
C135        O142   1.260       .  A
C135        O136   1.261       .  A
C135       C1158   1.483       .  S
C137        O139   1.260       .  A
C137        O143   1.263       .  A
C137       C1177   1.487       .  S
C141       C1225   1.489       .  S
In144       O146   2.235       .  S
In144       O147   2.249       .  S
In144       O155   2.233       .  S
In144       O149   2.272       .  S
In144       O151   2.277       .  S
In144       O152   2.229       .  S
In144       O153   2.219       .  S
In144       O156   2.234       .  S
C145        O151   1.266       .  A
C145        O153   1.258       .  A
C145       C1193   1.484       .  S
O146        C154   1.261       .  A
O147        C154   1.259       .  A
C148        O155   1.260       .  A
C148        O149   1.263       .  A
C148       C1161   1.498       .  S
C150        O152   1.260       .  A
C150        O156   1.264       .  A
C150       C1145   1.490       .  S
C154       C1286   1.488       .  S
In157       O159   2.232       .  S
In157       O160   2.241       .  S
In157       O168   2.239       .  S
In157       O162   2.245       .  S
In157       O164   2.264       .  S
In157       O165   2.248       .  S
In157       O166   2.216       .  S
In157       O169   2.239       .  S
C158        O164   1.266       .  A
C158        O166   1.259       .  A
C158       C1094   1.482       .  S
O159        C167   1.261       .  A
O160        C167   1.265       .  A
C161        O168   1.262       .  A
C161        O162   1.263       .  A
C161       C1126   1.495       .  S
C163        O165   1.263       .  A
C163        O169   1.262       .  A
C163       C1110   1.493       .  S
C167       C1209   1.487       .  S
In170       O172   2.235       .  S
In170       O173   2.234       .  S
In170       O181   2.227       .  S
In170       O175   2.262       .  S
In170       O177   2.265       .  S
In170       O178   2.246       .  S
In170       O179   2.201       .  S
In170       O182   2.238       .  S
C171        O177   1.267       .  A
C171        O179   1.259       .  A
C171       C1081   1.485       .  S
O172        C180   1.261       .  A
O173        C180   1.264       .  A
C174        O181   1.261       .  A
C174        O175   1.263       .  A
C174       C1129   1.488       .  S
C176        O178   1.264       .  A
C176        O182   1.259       .  A
C176       C1065   1.491       .  S
C180       C1449   1.489       .  S
In183       O185   2.243       .  S
In183       O186   2.227       .  S
In183       O194   2.244       .  S
In183       O188   2.250       .  S
In183       O190   2.265       .  S
In183       O191   2.238       .  S
In183       O192   2.217       .  S
In183       O195   2.230       .  S
C184        O190   1.265       .  A
C184        O192   1.258       .  A
C184       C1113   1.477       .  S
O185        C193   1.264       .  A
O186        C193   1.259       .  A
C187        O194   1.258       .  A
C187        O188   1.263       .  A
C187       C1046   1.493       .  S
C189        O191   1.260       .  A
C189        O195   1.260       .  A
C189       C1033   1.484       .  S
C193       C1142   1.492       .  S
In196       O198   2.234       .  S
In196       O199   2.234       .  S
In196       O207   2.215       .  S
In196       O201   2.259       .  S
In196       O203   2.251       .  S
In196       O204   2.234       .  S
In196       O205   2.216       .  S
In196       O208   2.235       .  S
C197        O203   1.266       .  A
C197        O205   1.258       .  A
C197       C1014   1.475       .  S
O198        C206   1.263       .  A
O199        C206   1.260       .  A
C200        O207   1.257       .  A
C200        O201   1.264       .  A
C200       C1049   1.485       .  S
C202        O204   1.261       .  A
C202        O208   1.260       .  A
C202       C1078   1.477       .  S
C206       C1401   1.484       .  S
In209       O211   2.243       .  S
In209       O212   2.243       .  S
In209       O220   2.236       .  S
In209       O214   2.252       .  S
In209       O216   2.263       .  S
In209       O217   2.247       .  S
In209       O218   2.206       .  S
In209       O221   2.232       .  S
C210        O216   1.266       .  A
C210        O218   1.259       .  A
C210       C1030   1.481       .  S
O211        C219   1.261       .  A
O212        C219   1.264       .  A
C213        O220   1.260       .  A
C213        O214   1.265       .  A
C213        C998   1.488       .  S
C215        O217   1.263       .  A
C215        O221   1.261       .  A
C215       C1097   1.491       .  S
C219       C1273   1.492       .  S
In222       O224   2.232       .  S
In222       O225   2.234       .  S
In222       O233   2.235       .  S
In222       O227   2.251       .  S
In222       O229   2.269       .  S
In222       O230   2.240       .  S
In222       O231   2.215       .  S
In222       O234   2.218       .  S
C223        O229   1.268       .  A
C223        O231   1.257       .  A
C223       C1062   1.487       .  S
O224        C232   1.261       .  A
O225        C232   1.264       .  A
C226        O233   1.259       .  A
C226        O227   1.266       .  A
C226       C1001   1.491       .  S
C228        O230   1.265       .  A
C228        O234   1.259       .  A
C228       C1017   1.485       .  S
C232       C1606   1.483       .  S
In235       O237   2.244       .  S
In235       O238   2.243       .  S
In235       O246   2.240       .  S
In235       O240   2.266       .  S
In235       O242   2.269       .  S
In235       O243   2.250       .  S
In235       O244   2.214       .  S
In235       O247   2.240       .  S
C236        O242   1.268       .  A
C236        O244   1.257       .  A
C236        C966   1.485       .  S
O237        C245   1.264       .  A
O238        C245   1.261       .  A
C239        O246   1.260       .  A
C239        O240   1.263       .  A
C239        C982   1.493   1_545  S
C241        O243   1.261       .  A
C241        O247   1.260       .  A
C241        C953   1.490       .  S
C245       C1257   1.487       .  S
In248       O250   2.242       .  S
In248       O251   2.238       .  S
In248       O259   2.237       .  S
In248       O253   2.261       .  S
In248       O255   2.280       .  S
In248       O256   2.244   1_565  S
In248       O257   2.215       .  S
In248       O260   2.227       .  S
C249        O255   1.269       .  A
C249        O257   1.258       .  A
C249        C918   1.488       .  S
O250        C258   1.264       .  A
O251        C258   1.262       .  A
C252        O259   1.262       .  A
C252        O253   1.264       .  A
C252        C985   1.499       .  S
C254        O256   1.263       .  A
C254        O260   1.262   1_545  A
C254        C902   1.487       .  S
C258        C934   1.493       .  S
In261       O263   2.251       .  S
In261       O264   2.250       .  S
In261       O272   2.244       .  S
In261       O266   2.252       .  S
In261       O268   2.267       .  S
In261       O269   2.268       .  S
In261       O270   2.210       .  S
In261       O273   2.238       .  S
C262        O268   1.266       .  A
C262        O270   1.258       .  A
C262        C870   1.481       .  S
O263        C271   1.262       .  A
O264        C271   1.263       .  A
C265        O272   1.259       .  A
C265        O266   1.263       .  A
C265        C889   1.489       .  S
C267        O269   1.265       .  A
C267        O273   1.257       .  A
C267        C969   1.496       .  S
C271       C1174   1.487       .  S
In274       O276   2.246       .  S
In274       O277   2.237       .  S
In274       O285   2.244       .  S
In274       O279   2.252       .  S
In274       O281   2.267       .  S
In274       O282   2.250       .  S
In274       O283   2.227       .  S
In274       O286   2.227       .  S
C275        O281   1.263       .  A
C275        O283   1.258       .  A
C275        C905   1.478       .  S
O276        C284   1.263       .  A
O277        C284   1.260       .  A
C278        O285   1.259       .  A
C278        O279   1.262       .  A
C278        C886   1.489       .  S
C280        O282   1.260       .  A
C280        O286   1.259       .  A
C280        C838   1.483       .  S
C284        C854   1.485       .  S
In287       O289   2.247       .  S
In287       O290   2.255       .  S
In287       O298   2.242       .  S
In287       O292   2.253       .  S
In287       O294   2.267       .  S
In287       O295   2.245       .  S
In287       O296   2.219       .  S
In287       O299   2.250       .  S
C288        O294   1.265       .  A
C288        O296   1.258       .  A
C288        C950   1.481       .  S
O289        C297   1.261       .  A
O290        C297   1.263       .  A
C291        O298   1.262       .  A
C291        O292   1.262       .  A
C291        C825   1.491       .  S
C293        O295   1.264       .  A
C293        O299   1.258       .  A
C293        C873   1.489       .  S
C297       C1321   1.496       .  S
In300       O302   2.250       .  S
In300       O303   2.249       .  S
In300       O311   2.232       .  S
In300       O305   2.257       .  S
In300       O307   2.263       .  S
In300       O308   2.245   1_455  S
In300       O309   2.207       .  S
In300       O312   2.250       .  S
C301        O307   1.268       .  A
C301        O309   1.260       .  A
C301        C841   1.486       .  S
O302        C310   1.262       .  A
O303        C310   1.266       .  A
C304        O311   1.263       .  A
C304        O305   1.265       .  A
C304        C822   1.495       .  S
C306        O308   1.267       .  A
C306        O312   1.261   1_655  A
C306        C921   1.490       .  S
C310        C809   1.494       .  S
In313       O315   2.242       .  S
In313       O316   2.230       .  S
In313       O324   2.218       .  S
In313       O318   2.270       .  S
In313       O320   2.272       .  S
In313       O321   2.249       .  S
In313       O322   2.193       .  S
In313       O325   2.244       .  S
C314        O320   1.269       .  A
C314        O322   1.257       .  A
C314        C761   1.479       .  S
O315        C323   1.262       .  A
O316        C323   1.262       .  A
C317        O324   1.258       .  A
C317        O318   1.267       .  A
C317        C790   1.497       .  S
C319        O321   1.264       .  A
C319        O325   1.263       .  A
C319        C806   1.497       .  S
C323        C777   1.490       .  S
In326       O328   2.238       .  S
In326       O329   2.247       .  S
In326       O337   2.237       .  S
In326       O331   2.250       .  S
In326       O333   2.277       .  S
In326       O334   2.224       .  S
In326       O335   2.219       .  S
In326       O338   2.246       .  S
C327        O333   1.265       .  A
C327        O335   1.256       .  A
C327        C713   1.482       .  S
O328        C336   1.259       .  A
O329        C336   1.260       .  A
C330        O337   1.258       .  A
C330        O331   1.263       .  A
C330        C793   1.480       .  S
C332        O334   1.261       .  A
C332        O338   1.263       .  A
C332        C745   1.488       .  S
C336        C726   1.479       .  S
In339       O341   2.253       .  S
In339       O342   2.242       .  S
In339       O350   2.255       .  S
In339       O344   2.246       .  S
In339       O346   2.266       .  S
In339       O347   2.241       .  S
In339       O348   2.217       .  S
In339       O351   2.246       .  S
C340        O346   1.264       .  A
C340        O348   1.259       .  A
C340        C774   1.482       .  S
O341        C349   1.260       .  A
O342        C349   1.259       .  A
C343        O350   1.261       .  A
C343        O344   1.259       .  A
C343        C694   1.488       .  S
C345        O347   1.260       .  A
C345        O351   1.263       .  A
C345        C937   1.494       .  S
C349        C681   1.485       .  S
In352       O354   2.236       .  S
In352       O355   2.245       .  S
In352       O363   2.228       .  S
In352       O357   2.252       .  S
In352       O359   2.252       .  S
In352       O360   2.232       .  S
In352       O361   2.210       .  S
In352       O364   2.243       .  S
C353        O359   1.267       .  A
C353        O361   1.259       .  A
C353        C646   1.476       .  S
O354        C362   1.259       .  A
O355        C362   1.266       .  A
C356        O363   1.263       .  A
C356        O357   1.264       .  A
C356        C697   1.496       .  S
C358        O360   1.263       .  A
C358        O364   1.265       .  A
C358        C662   1.495       .  S
C362        C710   1.488       .  S
In365       O367   2.236       .  S
In365       O368   2.242       .  S
In365       O376   2.216       .  S
In365       O370   2.259       .  S
In365       O372   2.274       .  S
In365       O373   2.240       .  S
In365       O374   2.195       .  S
In365       O377   2.243       .  S
C366        O372   1.267       .  A
C366        O374   1.259       .  A
C366        C678   1.487       .  S
O367        C375   1.259       .  A
O368        C375   1.265       .  A
C369        O376   1.258       .  A
C369        O370   1.266       .  A
C369        C630   1.492       .  S
C371        O373   1.261       .  A
C371        O377   1.264       .  A
C371        C857   1.486       .  S
C375        C758   1.488       .  S
In378       O380   2.225       .  S
In378       O381   2.255       .  S
In378       O389   2.235       .  S
In378       O383   2.241       .  S
In378       O385   2.276       .  S
In378       O386   2.234       .  S
In378       O387   2.214       .  S
In378       O390   2.229       .  S
C379        O385   1.264       .  A
C379        O387   1.257       .  A
C379        C729   1.481       .  S
O380        C388   1.261       .  A
O381        C388   1.261       .  A
C382        O389   1.259       .  A
C382        O383   1.264       .  A
C382        C633   1.488       .  S
C384        O386   1.263       .  A
C384        O390   1.260       .  A
C384        C617   1.490       .  S
C388        C649   1.488       .  S
In391       O393   2.237       .  S
In391       O394   2.225       .  S
In391       O402   2.238       .  S
In391       O396   2.252       .  S
In391       O398   2.273       .  S
In391       O399   2.231       .  S
In391       O400   2.217       .  S
In391       O403   2.226       .  S
C392        O398   1.266       .  A
C392        O400   1.258       .  A
C392        C582   1.479       .  S
O393        C401   1.265       .  A
O394        C401   1.260       .  A
C395        O402   1.259       .  A
C395        O396   1.265       .  A
C395        C598   1.490       .  S
C397        O399   1.260       .  A
C397        O403   1.261       .  A
C397        C566   1.483       .  S
C401       C1497   1.486       .  S
In404       O406   2.236       .  S
In404       O407   2.240       .  S
In404       O415   2.221   1_655  S
In404       O409   2.260       .  S
In404       O411   2.261       .  S
In404       O412   2.253   1_655  S
In404       O413   2.203       .  S
In404       O416   2.220   1_655  S
C405        O411   1.267       .  A
C405        O413   1.258       .  A
C405        C553   1.478       .  S
O406        C414   1.264       .  A
O407        C414   1.261       .  A
C408        O415   1.258   1_655  A
C408        O409   1.264       .  A
C408        C601   1.490       .  S
C410        O412   1.264       .  A
C410        O416   1.257       .  A
C410        C534   1.489       .  S
C414        C665   1.494       .  S
In417       O419   2.253       .  S
In417       O420   2.247       .  S
In417       O428   2.241       .  S
In417       O422   2.244       .  S
In417       O424   2.247       .  S
In417       O425   2.270       .  S
In417       O426   2.217       .  S
In417       O429   2.237       .  S
C418        O424   1.263       .  A
C418        O426   1.259       .  A
C418        C569   1.471       .  S
O419        C427   1.261       .  A
O420        C427   1.265       .  A
C421        O428   1.262       .  A
C421        O422   1.263       .  A
C421        C518   1.489       .  S
C423        O425   1.264       .  A
C423        O429   1.259       .  A
C423        C502   1.498       .  S
C427       C1382   1.489       .  S
In430       O432   2.233       .  S
In430       O433   2.230       .  S
In430       O441   2.239       .  S
In430       O435   2.248       .  S
In430       O437   2.268       .  S
In430       O438   2.242   1_545  S
In430       O439   2.223       .  S
In430       O442   2.229   1_545  S
C431        O437   1.266       .  A
C431        O439   1.259       .  A
C431        C486   1.487   1_655  S
O432        C440   1.261       .  A
O433        C440   1.265       .  A
C434        O441   1.259       .  A
C434        O435   1.266       .  A
C434        C521   1.491       .  S
C436        O438   1.265       .  A
C436        O442   1.258       .  A
C436        C550   1.485       .  S
C440        C614   1.492       .  S
In443       O445   2.238       .  S
In443       O446   2.236       .  S
In443       O454   2.250       .  S
In443       O448   2.254       .  S
In443       O450   2.265       .  S
In443       O451   2.255       .  S
In443       O452   2.225       .  S
In443       O455   2.234       .  S
C444        O450   1.266       .  A
C444        O452   1.259       .  A
C444        C505   1.485       .  S
O445        C453   1.263       .  A
O446        C453   1.262       .  A
C447        O454   1.260       .  A
C447        O448   1.264       .  A
C447        C473   1.492       .  S
C449        O451   1.262       .  A
C449        O455   1.260       .  A
C449        C585   1.493       .  S
C453       C1545   1.485       .  S
In456       O458   2.236       .  S
In456       O459   2.243       .  S
In456       O467   2.242       .  S
In456       O461   2.261       .  S
In456       O463   2.253       .  S
In456       O464   2.246       .  S
In456       O465   2.206       .  S
In456       O468   2.248       .  S
C457        O463   1.267       .  A
C457        O465   1.257       .  A
C457        C537   1.470       .  S
O458        C466   1.261       .  A
O459        C466   1.264       .  A
C460        O467   1.260       .  A
C460        O461   1.264       .  A
C460        C470   1.495       .  S
C462        O464   1.262       .  A
C462        O468   1.261       .  A
C462        C489   1.495       .  S
C466        C742   1.491       .  S
C469        C470   1.407       .  A
C469        C474   1.411       .  A
C469        H476   1.083       .  S
C470        C471   1.422       .  A
C471        C472   1.409       .  A
C471        C478   1.519       .  S
C472        C473   1.404       .  A
C472        H477   1.083       .  S
C473        C474   1.420       .  A
C474        C475   1.519       .  S
C475        F479   1.385       .  S
C475        F480   1.384       .  S
C475        F481   1.383       .  S
C478        F482   1.384       .  S
C478        F483   1.383       .  S
C478        F484   1.385       .  S
C485        C486   1.404       .  A
C485        C490   1.408       .  A
C485        H492   1.083       .  S
C486        C487   1.416       .  A
C487        C488   1.411       .  A
C487        C494   1.518       .  S
C488        C489   1.410       .  A
C488        H493   1.083       .  S
C489        C490   1.423       .  A
C490        C491   1.521       .  S
C491        F495   1.384       .  S
C491        F496   1.383       .  S
C491        F497   1.384       .  S
C494        F498   1.383   1_455  S
C494        F499   1.383   1_455  S
C494        F500   1.384       .  S
C501        C502   1.411       .  A
C501        C506   1.409       .  A
C501        H508   1.082       .  S
C502        C503   1.422       .  A
C503        C504   1.410       .  A
C503        C510   1.518       .  S
C504        C505   1.404       .  A
C504        H509   1.083       .  S
C505        C506   1.414       .  A
C506        C507   1.518       .  S
C507        F511   1.384       .  S
C507        F512   1.384       .  S
C507        F513   1.383       .  S
C510        F514   1.384       .  S
C510        F515   1.382       .  S
C510        F516   1.385       .  S
C517        C518   1.406       .  A
C517        C522   1.409       .  A
C517        H524   1.083       .  S
C518        C519   1.419   1_565  A
C519        C520   1.407       .  A
C519        C526   1.518       .  S
C520        C521   1.405       .  A
C520        H525   1.083       .  S
C521        C522   1.423   1_545  A
C522        C523   1.521       .  S
C523        F527   1.386       .  S
C523        F528   1.383   1_565  S
C523        F529   1.383       .  S
C526        F530   1.384       .  S
C526        F531   1.383   1_545  S
C526        F532   1.385       .  S
C533        C534   1.409       .  A
C533        C538   1.407       .  A
C533        H540   1.062       .  S
C534        C535   1.426       .  A
C535        C536   1.405       .  A
C535        C542   1.520       .  S
C536        C537   1.397   1_565  A
C536        H541   1.078   1_565  S
C537        C538   1.414   1_545  A
C538        C539   1.521       .  S
C539        F543   1.384       .  S
C539        F544   1.382   1_565  S
C539        F545   1.384   1_565  S
C542        F546   1.384       .  S
C542        F547   1.383       .  S
C542        F548   1.385       .  S
C549        C550   1.403       .  A
C549        C554   1.402       .  A
C549        H556   1.083       .  S
C550        C551   1.423       .  A
C551        C552   1.409       .  A
C551        C558   1.519       .  S
C552        C553   1.402       .  A
C552        H557   1.083       .  S
C553        C554   1.418       .  A
C554        C555   1.520       .  S
C555        F559   1.385       .  S
C555        F560   1.383       .  S
C555        F561   1.384       .  S
C558        F562   1.382       .  S
C558        F563   1.384       .  S
C558        F564   1.385       .  S
C565        C566   1.407       .  A
C565        C570   1.403       .  A
C565        H572   1.082       .  S
C566        C567   1.421       .  A
C567        C568   1.404       .  A
C567        C574   1.520       .  S
C568        C569   1.402       .  A
C568        H573   1.084       .  S
C569        C570   1.414       .  A
C570        C571   1.519       .  S
C571        F575   1.385       .  S
C571        F576   1.382       .  S
C571        F577   1.383       .  S
C574        F578   1.384       .  S
C574        F579   1.383       .  S
C574        F580   1.385       .  S
C581        C582   1.403       .  A
C581        C586   1.408       .  A
C581        H588   1.083       .  S
C582        C583   1.413       .  A
C583        C584   1.408       .  A
C583        C590   1.517       .  S
C584        C585   1.410       .  A
C584        H589   1.082       .  S
C585        C586   1.423       .  A
C586        C587   1.520       .  S
C587        F591   1.385       .  S
C587        F592   1.384       .  S
C587        F593   1.383       .  S
C590        F594   1.383       .  S
C590        F595   1.383       .  S
C590        F596   1.385       .  S
C597        C598   1.404       .  A
C597        C602   1.407       .  A
C597        H604   1.083       .  S
C598        C599   1.422       .  A
C599        C600   1.410   1_455  A
C599        C606   1.520   1_455  S
C600        C601   1.406       .  A
C600        H605   1.083       .  S
C601        C602   1.422   1_655  A
C602        C603   1.521       .  S
C603        F607   1.384       .  S
C603        F608   1.384   1_455  S
C603        F609   1.383       .  S
C606        F610   1.384       .  S
C606        F611   1.383   1_655  S
C606        F612   1.385       .  S
C613        C614   1.406       .  A
C613        C618   1.406       .  A
C613        H620   1.081       .  S
C614        C615   1.423       .  A
C615        C616   1.407       .  A
C615        C622   1.521       .  S
C616        C617   1.406       .  A
C616        H621   1.082       .  S
C617        C618   1.422       .  A
C618        C619   1.522       .  S
C619        F623   1.385       .  S
C619        F624   1.383       .  S
C619        F625   1.383       .  S
C622        F626   1.383       .  S
C622        F627   1.383       .  S
C622        F628   1.385       .  S
C629        C630   1.407       .  A
C629        C634   1.410       .  A
C629        H636   1.082       .  S
C630        C631   1.424   1_455  A
C631        C632   1.405       .  A
C631        C638   1.522       .  S
C632        C633   1.403       .  A
C632        H637   1.082       .  S
C633        C634   1.421   1_655  A
C634        C635   1.520       .  S
C635        F639   1.385       .  S
C635        F640   1.383       .  S
C635        F641   1.384       .  S
C638        F642   1.384       .  S
C638        F643   1.383       .  S
C638        F644   1.385       .  S
C645        C646   1.404       .  A
C645        C650   1.408       .  A
C645        H652   1.084       .  S
C646        C647   1.412       .  A
C647        C648   1.404       .  A
C647        C654   1.517       .  S
C648        C649   1.407       .  A
C648        H653   1.083       .  S
C649        C650   1.422       .  A
C650        C651   1.520       .  S
C651        F655   1.385       .  S
C651        F656   1.383       .  S
C651        F657   1.384       .  S
C654        F658   1.383       .  S
C654        F659   1.383       .  S
C654        F660   1.384       .  S
C661        C662   1.407       .  A
C661        C666   1.410       .  A
C661        H668   1.082       .  S
C662        C663   1.423       .  A
C663        C664   1.407       .  A
C663        C670   1.521       .  S
C664        C665   1.405       .  A
C664        H669   1.082       .  S
C665        C666   1.423       .  A
C666        C667   1.522       .  S
C667        F671   1.385       .  S
C667        F672   1.383       .  S
C667        F673   1.384       .  S
C670        F674   1.383       .  S
C670        F675   1.384       .  S
C670        F676   1.385       .  S
C677        C678   1.405       .  A
C677        C682   1.402       .  A
C677        H684   1.083       .  S
C678        C679   1.418       .  A
C679        C680   1.412       .  A
C679        C686   1.518       .  S
C680        C681   1.408       .  A
C680        H685   1.084       .  S
C681        C682   1.419       .  A
C682        C683   1.522       .  S
C683        F687   1.385       .  S
C683        F688   1.384       .  S
C683        F689   1.382       .  S
C686        F690   1.385       .  S
C686        F691   1.383       .  S
C686        F692   1.383       .  S
C693        C694   1.405       .  A
C693        C698   1.412       .  A
C693        H700   1.083       .  S
C694        C695   1.419       .  A
C695        C696   1.406       .  A
C695        C702   1.521       .  S
C696        C697   1.408       .  A
C696        H701   1.082       .  S
C697        C698   1.423       .  A
C698        C699   1.519       .  S
C699        F703   1.385       .  S
C699        F704   1.383       .  S
C699        F705   1.383       .  S
C702        F706   1.383       .  S
C702        F707   1.384       .  S
C702        F708   1.385       .  S
C709        C710   1.403       .  A
C709        C714   1.403       .  A
C709        H716   1.083       .  S
C710        C711   1.424       .  A
C711        C712   1.411       .  A
C711        C718   1.519       .  S
C712        C713   1.403       .  A
C712        H717   1.084       .  S
C713        C714   1.417       .  A
C714        C715   1.519       .  S
C715        F719   1.385       .  S
C715        F720   1.384       .  S
C715        F721   1.382       .  S
C718        F722   1.384       .  S
C718        F723   1.382       .  S
C718        F724   1.385       .  S
C725        C726   1.401       .  A
C725        C730   1.403       .  A
C725        H732   1.083       .  S
C726        C727   1.416       .  A
C727        C728   1.409       .  A
C727        C734   1.516       .  S
C728        C729   1.405       .  A
C728        H733   1.083       .  S
C729        C730   1.420       .  A
C730        C731   1.519       .  S
C731        F735   1.385       .  S
C731        F736   1.384       .  S
C731        F737   1.382       .  S
C734        F738   1.385       .  S
C734        F739   1.382       .  S
C734        F740   1.384       .  S
C741        C742   1.408       .  A
C741        C746   1.409       .  A
C741        H748   1.082       .  S
C742        C743   1.421       .  A
C743        C744   1.406       .  A
C743        C750   1.521       .  S
C744        C745   1.406       .  A
C744        H749   1.082       .  S
C745        C746   1.418       .  A
C746        C747   1.520       .  S
C747        F751   1.385       .  S
C747        F752   1.383       .  S
C747        F753   1.384       .  S
C750        F754   1.383       .  S
C750        F755   1.383       .  S
C750        F756   1.385       .  S
C757        C758   1.404       .  A
C757        C762   1.402       .  A
C757        H764   1.083       .  S
C758        C759   1.424       .  A
C759        C760   1.411       .  A
C759        C766   1.519       .  S
C760        C761   1.402       .  A
C760        H765   1.083       .  S
C761        C762   1.418       .  A
C762        C763   1.521       .  S
C763        F767   1.384       .  S
C763        F768   1.384       .  S
C763        F769   1.383       .  S
C766        F770   1.384       .  S
C766        F771   1.383       .  S
C766        F772   1.385       .  S
C773        C774   1.402       .  A
C773        C778   1.405       .  A
C773        H780   1.083       .  S
C774        C775   1.415       .  A
C775        C776   1.410       .  A
C775        C782   1.519       .  S
C776        C777   1.410       .  A
C776        H781   1.082       .  S
C777        C778   1.422       .  A
C778        C779   1.521       .  S
C779        F783   1.384       .  S
C779        F784   1.384       .  S
C779        F785   1.383       .  S
C782        F786   1.384       .  S
C782        F787   1.383       .  S
C782        F788   1.384       .  S
C789        C790   1.409       .  A
C789        C794   1.410       .  A
C789        H796   1.083       .  S
C790        C791   1.429   1_565  A
C791        C792   1.407       .  A
C791        C798   1.522       .  S
C792        C793   1.398       .  A
C792        H797   1.082       .  S
C793        C794   1.414   1_545  A
C794        C795   1.518       .  S
C795        F799   1.384       .  S
C795        F800   1.382       .  S
C795        F801   1.384   1_565  S
C798        F802   1.384   1_545  S
C798        F803   1.383       .  S
C798        F804   1.385       .  S
C805        C806   1.408       .  A
C805        C810   1.411       .  A
C805        H812   1.082       .  S
C806        C807   1.422       .  A
C807        C808   1.410       .  A
C807        C814   1.520       .  S
C808        C809   1.405       .  A
C808        H813   1.082       .  S
C809        C810   1.421       .  A
C810        C811   1.520       .  S
C811        F815   1.385       .  S
C811        F816   1.384       .  S
C811        F817   1.382       .  S
C814        F818   1.383       .  S
C814        F819   1.384       .  S
C814        F820   1.385       .  S
C821        C822   1.408       .  A
C821        C826   1.410   1_455  A
C821        H828   1.082       .  S
C822        C823   1.422       .  A
C823        C824   1.410       .  A
C823        C830   1.519       .  S
C824        C825   1.405   1_455  A
C824        H829   1.082       .  S
C825        C826   1.420       .  A
C826        C827   1.521       .  S
C827        F831   1.385       .  S
C827        F832   1.384       .  S
C827        F833   1.383       .  S
C830        F834   1.383       .  S
C830        F835   1.383       .  S
C830        F836   1.385       .  S
C837        C838   1.405       .  A
C837        C842   1.406       .  A
C837        H844   1.083       .  S
C838        C839   1.418       .  A
C839        C840   1.406   1_545  A
C839        C846   1.522       .  S
C840        C841   1.408       .  A
C840        H845   1.083       .  S
C841        C842   1.417   1_565  A
C842        C843   1.518   1_545  S
C843        F847   1.385   1_565  S
C843        F848   1.383       .  S
C843        F849   1.383       .  S
C846        F850   1.383       .  S
C846        F851   1.384       .  S
C846        F852   1.385       .  S
C853        C854   1.402       .  A
C853        C858   1.407       .  A
C853        H860   1.083       .  S
C854        C855   1.421       .  A
C855        C856   1.408       .  A
C855        C862   1.521       .  S
C856        C857   1.403       .  A
C856        H861   1.083       .  S
C857        C858   1.422       .  A
C858        C859   1.520       .  S
C859        F863   1.385       .  S
C859        F864   1.383       .  S
C859        F865   1.383       .  S
C862        F866   1.384       .  S
C862        F867   1.383       .  S
C862        F868   1.385       .  S
C869        C870   1.403       .  A
C869        C874   1.411       .  A
C869        H876   1.083       .  S
C870        C871   1.417       .  A
C871        C872   1.402       .  A
C871        C878   1.518       .  S
C872        C873   1.403       .  A
C872        H877   1.083       .  S
C873        C874   1.424       .  A
C874        C875   1.518       .  S
C875        F879   1.385       .  S
C875        F880   1.380       .  S
C875        F881   1.384       .  S
C878        F882   1.382       .  S
C878        F883   1.382       .  S
C878        F884   1.384       .  S
C885        C886   1.405       .  A
C885        C890   1.408       .  A
C885        H892   1.082       .  S
C886        C887   1.420       .  A
C887        C888   1.408       .  A
C887        C894   1.519       .  S
C888        C889   1.405       .  A
C888        H893   1.082       .  S
C889        C890   1.420       .  A
C890        C891   1.519       .  S
C891        F895   1.385       .  S
C891        F896   1.383       .  S
C891        F897   1.382       .  S
C894        F898   1.384       .  S
C894        F899   1.382       .  S
C894        F900   1.385       .  S
C901        C902   1.407       .  A
C901        C906   1.405       .  A
C901        H908   1.082       .  S
C902        C903   1.419       .  A
C903        C904   1.407       .  A
C903        C910   1.518       .  S
C904        C905   1.403   1_655  A
C904        H909   1.083       .  S
C905        C906   1.415   1_455  A
C906        C907   1.519   1_655  S
C907        F911   1.385   1_455  S
C907        F912   1.382       .  S
C907        F913   1.383       .  S
C910        F914   1.384       .  S
C910        F915   1.383       .  S
C910        F916   1.385       .  S
C917        C918   1.405       .  A
C917        C922   1.414       .  A
C917        H924   1.083       .  S
C918        C919   1.421       .  A
C919        C920   1.404       .  A
C919        C926   1.520       .  S
C920        C921   1.402       .  A
C920        H925   1.083       .  S
C921        C922   1.423       .  A
C922        C923   1.518       .  S
C923        F927   1.385       .  S
C923        F928   1.382       .  S
C923        F929   1.384       .  S
C926        F930   1.383       .  S
C926        F931   1.384       .  S
C926        F932   1.385       .  S
C933        C934   1.405       .  A
C933        C938   1.409       .  A
C933        H940   1.082       .  S
C934        C935   1.422       .  A
C935        C936   1.408       .  A
C935        C942   1.521       .  S
C936        C937   1.405       .  A
C936        H941   1.082       .  S
C937        C938   1.424       .  A
C938        C939   1.522       .  S
C939        F943   1.385       .  S
C939        F944   1.383       .  S
C939        F945   1.384       .  S
C942        F946   1.383       .  S
C942        F947   1.383       .  S
C942        F948   1.385       .  S
C949        C950   1.403       .  A
C949        C954   1.407       .  A
C949        H956   1.083       .  S
C950        C951   1.415       .  A
C951        C952   1.408       .  A
C951        C958   1.518       .  S
C952        C953   1.408       .  A
C952        H957   1.082       .  S
C953        C954   1.422       .  A
C954        C955   1.520       .  S
C955        F959   1.385       .  S
C955        F960   1.383       .  S
C955        F961   1.383       .  S
C958        F962   1.384       .  S
C958        F963   1.383       .  S
C958        F964   1.381       .  S
C965        C966   1.401       .  A
C965        C970   1.410       .  A
C965        H972   1.083       .  S
C966        C967   1.420       .  A
C967        C968   1.407       .  A
C967        C974   1.520       .  S
C968        C969   1.406       .  A
C968        H973   1.083       .  S
C969        C970   1.426       .  A
C970        C971   1.519       .  S
C971        F975   1.385       .  S
C971        F976   1.383       .  S
C971        F977   1.384       .  S
C974        F978   1.383       .  S
C974        F979   1.384       .  S
C974        F980   1.384       .  S
C981        C982   1.405       .  A
C981        C986   1.410       .  A
C981        H988   1.083       .  S
C982        C983   1.420       .  A
C983        C984   1.411       .  A
C983        C990   1.520   1_565  S
C984        C985   1.409       .  A
C984        H989   1.082       .  S
C985        C986   1.423       .  A
C986        C987   1.519       .  S
C987        F991   1.385       .  S
C987        F992   1.383       .  S
C987        F993   1.383       .  S
C990        F994   1.384       .  S
C990        F995   1.383       .  S
C990        F996   1.385       .  S
C997        C998   1.404       .  A
C997       C1002   1.409       .  A
C997       H1004   1.083       .  S
C998        C999   1.419   1_545  A
C999       C1000   1.407       .  A
C999       C1006   1.518       .  S
C1000      C1001   1.405       .  A
C1000      H1005   1.083       .  S
C1001      C1002   1.423   1_565  A
C1002      C1003   1.520       .  S
C1003      F1007   1.385       .  S
C1003      F1008   1.383       .  S
C1003      F1009   1.383       .  S
C1006      F1010   1.383   1_565  S
C1006      F1011   1.383       .  S
C1006      F1012   1.385       .  S
C1013      C1014   1.400       .  A
C1013      C1018   1.405       .  A
C1013      H1020   1.083       .  S
C1014      C1015   1.416       .  A
C1015      C1016   1.404       .  A
C1015      C1022   1.520       .  S
C1016      C1017   1.406       .  A
C1016      H1021   1.082       .  S
C1017      C1018   1.424       .  A
C1018      C1019   1.520       .  S
C1019      F1023   1.385       .  S
C1019      F1024   1.383       .  S
C1019      F1025   1.384       .  S
C1022      F1026   1.382       .  S
C1022      F1027   1.384       .  S
C1022      F1028   1.385       .  S
C1029      C1030   1.404       .  A
C1029      C1034   1.404       .  A
C1029      H1036   1.083       .  S
C1030      C1031   1.416       .  A
C1031      C1032   1.407       .  A
C1031      C1038   1.519       .  S
C1032      C1033   1.407       .  A
C1032      H1037   1.083       .  S
C1033      C1034   1.421       .  A
C1034      C1035   1.523       .  S
C1035      F1039   1.385       .  S
C1035      F1040   1.383       .  S
C1035      F1041   1.384       .  S
C1038      F1042   1.382       .  S
C1038      F1043   1.384       .  S
C1038      F1044   1.385       .  S
C1045      C1046   1.406       .  A
C1045      C1050   1.406       .  A
C1045      H1052   1.083       .  S
C1046      C1047   1.424   1_655  A
C1047      C1048   1.410       .  A
C1047      C1054   1.520       .  S
C1048      C1049   1.404       .  A
C1048      H1053   1.083       .  S
C1049      C1050   1.419   1_455  A
C1050      C1051   1.521       .  S
C1051      F1055   1.384       .  S
C1051      F1056   1.384   1_655  S
C1051      F1057   1.383       .  S
C1054      F1058   1.384       .  S
C1054      F1059   1.383       .  S
C1054      F1060   1.385       .  S
C1061      C1062   1.404       .  A
C1061      C1066   1.410       .  A
C1061      H1068   1.082       .  S
C1062      C1063   1.422       .  A
C1063      C1064   1.406       .  A
C1063      C1070   1.522       .  S
C1064      C1065   1.405       .  A
C1064      H1069   1.082       .  S
C1065      C1066   1.423       .  A
C1066      C1067   1.520       .  S
C1067      F1071   1.385       .  S
C1067      F1072   1.383       .  S
C1067      F1073   1.383       .  S
C1070      F1074   1.385       .  S
C1070      F1075   1.383       .  S
C1070      F1076   1.383       .  S
C1077      C1078   1.405       .  A
C1077      C1082   1.409       .  A
C1077      H1084   1.083       .  S
C1078      C1079   1.416       .  A
C1079      C1080   1.402       .  A
C1079      C1086   1.522       .  S
C1080      C1081   1.407       .  A
C1080      H1085   1.082       .  S
C1081      C1082   1.418       .  A
C1082      C1083   1.518       .  S
C1083      F1087   1.385       .  S
C1083      F1088   1.383       .  S
C1083      F1089   1.383       .  S
C1086      F1090   1.383       .  S
C1086      F1091   1.384       .  S
C1086      F1092   1.384       .  S
C1093      C1094   1.404       .  A
C1093      C1098   1.407       .  A
C1093      H1100   1.084       .  S
C1094      C1095   1.414       .  A
C1095      C1096   1.408       .  A
C1095      C1102   1.518       .  S
C1096      C1097   1.409       .  A
C1096      H1101   1.083       .  S
C1097      C1098   1.422       .  A
C1098      C1099   1.520       .  S
C1099      F1103   1.385       .  S
C1099      F1104   1.384       .  S
C1099      F1105   1.383       .  S
C1102      F1106   1.383       .  S
C1102      F1107   1.383       .  S
C1102      F1108   1.384       .  S
C1109      C1110   1.410       .  A
C1109      C1114   1.408       .  A
C1109      H1116   1.082       .  S
C1110      C1111   1.422       .  A
C1111      C1112   1.406       .  A
C1111      C1118   1.518       .  S
C1112      C1113   1.401       .  A
C1112      H1117   1.083       .  S
C1113      C1114   1.413       .  A
C1114      C1115   1.518       .  S
C1115      F1119   1.385       .  S
C1115      F1120   1.383       .  S
C1115      F1121   1.383       .  S
C1118      F1122   1.384       .  S
C1118      F1123   1.382       .  S
C1118      F1124   1.385       .  S
C1125      C1126   1.409       .  A
C1125      C1130   1.410       .  A
C1125      H1132   1.082       .  S
C1126      C1127   1.422       .  A
C1127      C1128   1.408       .  A
C1127      C1134   1.520       .  S
C1128      C1129   1.404       .  A
C1128      H1133   1.083       .  S
C1129      C1130   1.418       .  A
C1130      C1131   1.520       .  S
C1131      F1135   1.385       .  S
C1131      F1136   1.383       .  S
C1131      F1137   1.383       .  S
C1134      F1138   1.383       .  S
C1134      F1139   1.383       .  S
C1134      F1140   1.385       .  S
C1141      C1142   1.406       .  A
C1141      C1146   1.407       .  A
C1141      H1148   1.082       .  S
C1142      C1143   1.424       .  A
C1143      C1144   1.406       .  A
C1143      C1150   1.522       .  S
C1144      C1145   1.405       .  A
C1144      H1149   1.082       .  S
C1145      C1146   1.423       .  A
C1146      C1147   1.522       .  S
C1147      F1151   1.385       .  S
C1147      F1152   1.383       .  S
C1147      F1153   1.383       .  S
C1150      F1154   1.383       .  S
C1150      F1155   1.383       .  S
C1150      F1156   1.385       .  S
C1157      C1158   1.403       .  A
C1157      C1162   1.412       .  A
C1157      H1164   1.083       .  S
C1158      C1159   1.416       .  A
C1159      C1160   1.406       .  A
C1159      C1166   1.521       .  S
C1160      C1161   1.408       .  A
C1160      H1165   1.082       .  S
C1161      C1162   1.423       .  A
C1162      C1163   1.518       .  S
C1163      F1167   1.385       .  S
C1163      F1168   1.384       .  S
C1163      F1169   1.382       .  S
C1166      F1170   1.383       .  S
C1166      F1171   1.382       .  S
C1166      F1172   1.385       .  S
C1173      C1174   1.405       .  A
C1173      C1178   1.409   1_556  A
C1173      H1180   1.081       .  S
C1174      C1175   1.417       .  A
C1175      C1176   1.411   1_556  A
C1175      C1182   1.519       .  S
C1176      C1177   1.407       .  A
C1176      H1181   1.083       .  S
C1177      C1178   1.418       .  A
C1178      C1179   1.520       .  S
C1179      F1183   1.384   1_554  S
C1179      F1184   1.384       .  S
C1179      F1185   1.383       .  S
C1182      F1186   1.382       .  S
C1182      F1187   1.384       .  S
C1182      F1188   1.384   1_556  S
C1189      C1190   1.411       .  A
C1189      C1194   1.409       .  A
C1189      H1196   1.082       .  S
C1190      C1191   1.422       .  A
C1191      C1192   1.408       .  A
C1191      C1198   1.519       .  S
C1192      C1193   1.404   1_455  A
C1192      H1197   1.083   1_455  S
C1193      C1194   1.415   1_655  A
C1194      C1195   1.519   1_455  S
C1195      F1199   1.385   1_655  S
C1195      F1200   1.383       .  S
C1195      F1201   1.383       .  S
C1198      F1202   1.383       .  S
C1198      F1203   1.384       .  S
C1198      F1204   1.385       .  S
C1205      C1206   1.405       .  A
C1205      C1210   1.409       .  A
C1205      H1212   1.083       .  S
C1206      C1207   1.424       .  A
C1207      C1208   1.407       .  A
C1207      C1214   1.521       .  S
C1208      C1209   1.402       .  A
C1208      H1213   1.083       .  S
C1209      C1210   1.422       .  A
C1210      C1211   1.521       .  S
C1211      F1215   1.385       .  S
C1211      F1216   1.383       .  S
C1211      F1217   1.384       .  S
C1214      F1218   1.384       .  S
C1214      F1219   1.383       .  S
C1214      F1220   1.385       .  S
C1221      C1222   1.399       .  A
C1221      C1226   1.406       .  A
C1221      H1228   1.083       .  S
C1222      C1223   1.419       .  A
C1223      C1224   1.406       .  A
C1223      C1230   1.521       .  S
C1224      C1225   1.406       .  A
C1224      H1229   1.083       .  S
C1225      C1226   1.424       .  A
C1226      C1227   1.518       .  S
C1227      F1231   1.385       .  S
C1227      F1232   1.382       .  S
C1227      F1233   1.382       .  S
C1230      F1234   1.384       .  S
C1230      F1235   1.383       .  S
C1230      F1236   1.385       .  S
C1237      C1238   1.403   1_545  A
C1237      C1242   1.407       .  A
C1237      H1244   1.083       .  S
C1238      C1239   1.417       .  A
C1239      C1240   1.408       .  A
C1239      C1246   1.520       .  S
C1240      C1241   1.409   1_565  A
C1240      H1245   1.083       .  S
C1241      C1242   1.423       .  A
C1242      C1243   1.520       .  S
C1243      F1247   1.385       .  S
C1243      F1248   1.383       .  S
C1243      F1249   1.383       .  S
C1246      F1250   1.383       .  S
C1246      F1251   1.384       .  S
C1246      F1252   1.385       .  S
C1253      C1254   1.406       .  A
C1253      C1258   1.407   1_565  A
C1253      H1260   1.083       .  S
C1254      C1255   1.419       .  A
C1255      C1256   1.408   1_554  A
C1255      C1262   1.521       .  S
C1256      C1257   1.406   1_565  A
C1256      H1261   1.082       .  S
C1257      C1258   1.419   1_556  A
C1258      C1259   1.519       .  S
C1259      F1263   1.385       .  S
C1259      F1264   1.382   1_554  S
C1259      F1265   1.383   1_544  S
C1262      F1266   1.384       .  S
C1262      F1267   1.383       .  S
C1262      F1268   1.385   1_554  S
C1269      C1270   1.405       .  A
C1269      C1274   1.410       .  A
C1269      H1276   1.082       .  S
C1270      C1271   1.419       .  A
C1271      C1272   1.408       .  A
C1271      C1278   1.520       .  S
C1272      C1273   1.407       .  A
C1272      H1277   1.082       .  S
C1273      C1274   1.421       .  A
C1274      C1275   1.520       .  S
C1275      F1279   1.385       .  S
C1275      F1280   1.383       .  S
C1275      F1281   1.383       .  S
C1278      F1282   1.382       .  S
C1278      F1283   1.384       .  S
C1278      F1284   1.385       .  S
C1285      C1286   1.406       .  A
C1285      C1290   1.404       .  A
C1285      H1292   1.082       .  S
C1286      C1287   1.422       .  A
C1287      C1288   1.408       .  A
C1287      C1294   1.519       .  S
C1288      C1289   1.403   1_565  A
C1288      H1293   1.083       .  S
C1289      C1290   1.415   1_545  A
C1290      C1291   1.519   1_565  S
C1291      F1295   1.385   1_545  S
C1291      F1296   1.383       .  S
C1291      F1297   1.383       .  S
C1294      F1298   1.382       .  S
C1294      F1299   1.384       .  S
C1294      F1300   1.385       .  S
C1301      C1302   1.402       .  A
C1301      C1306   1.405       .  A
C1301      H1308   1.083       .  S
C1302      C1303   1.414       .  A
C1303      C1304   1.412       .  A
C1303      C1310   1.519       .  S
C1304      C1305   1.413       .  A
C1304      H1309   1.083       .  S
C1305      C1306   1.423       .  A
C1306      C1307   1.520       .  S
C1307      F1311   1.385       .  S
C1307      F1312   1.383       .  S
C1307      F1313   1.383       .  S
C1310      F1314   1.384       .  S
C1310      F1315   1.384       .  S
C1310      F1316   1.384       .  S
C1317      C1318   1.407       .  A
C1317      C1322   1.409   1_554  A
C1317      H1324   1.083       .  S
C1318      C1319   1.420   1_455  A
C1319      C1320   1.411   1_554  A
C1319      C1326   1.520       .  S
C1320      C1321   1.408       .  A
C1320      H1325   1.083       .  S
C1321      C1322   1.421   1_655  A
C1322      C1323   1.520       .  S
C1323      F1327   1.385       .  S
C1323      F1328   1.384       .  S
C1323      F1329   1.382       .  S
C1326      F1330   1.384       .  S
C1326      F1331   1.384       .  S
C1326      F1332   1.384       .  S
C1333      C1334   1.401       .  A
C1333      C1338   1.401       .  A
C1333      H1340   1.083       .  S
C1334      C1335   1.416       .  A
C1335      C1336   1.410       .  A
C1335      C1342   1.519       .  S
C1336      C1337   1.409       .  A
C1336      H1341   1.083       .  S
C1337      C1338   1.420       .  A
C1338      C1339   1.521       .  S
C1339      F1343   1.385       .  S
C1339      F1344   1.384       .  S
C1339      F1345   1.383       .  S
C1342      F1346   1.383       .  S
C1342      F1347   1.383       .  S
C1342      F1348   1.385       .  S
C1349      C1350   1.410       .  A
C1349      C1354   1.408       .  A
C1349      H1356   1.083       .  S
C1350      C1351   1.423       .  A
C1351      C1352   1.405       .  A
C1351      C1358   1.520       .  S
C1352      C1353   1.401       .  A
C1352      H1357   1.084       .  S
C1353      C1354   1.413       .  A
C1354      C1355   1.518       .  S
C1355      F1359   1.384       .  S
C1355      F1360   1.383       .  S
C1355      F1361   1.383       .  S
C1358      F1362   1.383       .  S
C1358      F1363   1.383       .  S
C1358      F1364   1.385       .  S
C1365      C1366   1.405       .  A
C1365      C1370   1.408   1_655  A
C1365      H1372   1.083       .  S
C1366      C1367   1.420       .  A
C1367      C1368   1.408       .  A
C1367      C1374   1.521       .  S
C1368      C1369   1.406   1_655  A
C1368      H1373   1.083       .  S
C1369      C1370   1.421       .  A
C1370      C1371   1.519       .  S
C1371      F1375   1.385       .  S
C1371      F1376   1.383       .  S
C1371      F1377   1.383       .  S
C1374      F1378   1.383       .  S
C1374      F1379   1.383       .  S
C1374      F1380   1.385       .  S
C1381      C1382   1.404       .  A
C1381      C1386   1.407       .  A
C1381      H1388   1.083       .  S
C1382      C1383   1.420   1_565  A
C1383      C1384   1.411       .  A
C1383      C1390   1.519       .  S
C1384      C1385   1.406       .  A
C1384      H1389   1.082       .  S
C1385      C1386   1.419   1_545  A
C1386      C1387   1.520       .  S
C1387      F1391   1.385       .  S
C1387      F1392   1.382       .  S
C1387      F1393   1.384       .  S
C1390      F1394   1.383       .  S
C1390      F1395   1.383       .  S
C1390      F1396   1.385       .  S
C1397      C1398   1.406       .  A
C1397      C1402   1.408       .  A
C1397      H1404   1.083       .  S
C1398      C1399   1.421       .  A
C1399      C1400   1.405       .  A
C1399      C1406   1.521       .  S
C1400      C1401   1.403       .  A
C1400      H1405   1.083       .  S
C1401      C1402   1.419       .  A
C1402      C1403   1.520       .  S
C1403      F1407   1.385       .  S
C1403      F1408   1.383       .  S
C1403      F1409   1.384       .  S
C1406      F1410   1.383       .  S
C1406      F1411   1.383       .  S
C1406      F1412   1.385       .  S
C1413      C1414   1.408       .  A
C1413      C1418   1.409   1_565  A
C1413      H1420   1.082       .  S
C1414      C1415   1.421       .  A
C1415      C1416   1.408       .  A
C1415      C1422   1.519       .  S
C1416      C1417   1.405   1_565  A
C1416      H1421   1.083       .  S
C1417      C1418   1.419       .  A
C1418      C1419   1.520       .  S
C1419      F1423   1.385       .  S
C1419      F1424   1.383       .  S
C1419      F1425   1.382       .  S
C1422      F1426   1.384       .  S
C1422      F1427   1.383       .  S
C1422      F1428   1.385       .  S
C1429      C1430   1.405       .  A
C1429      C1434   1.402       .  A
C1429      H1436   1.084       .  S
C1430      C1431   1.420       .  A
C1431      C1432   1.407       .  A
C1431      C1438   1.517       .  S
C1432      C1433   1.402       .  A
C1432      H1437   1.084       .  S
C1433      C1434   1.416       .  A
C1434      C1435   1.520       .  S
C1435      F1439   1.385       .  S
C1435      F1440   1.384       .  S
C1435      F1441   1.383       .  S
C1438      F1442   1.384       .  S
C1438      F1443   1.382       .  S
C1438      F1444   1.385       .  S
C1445      C1446   1.406       .  A
C1445      C1450   1.408       .  A
C1445      H1452   1.082       .  S
C1446      C1447   1.422       .  A
C1447      C1448   1.407       .  A
C1447      C1454   1.522       .  S
C1448      C1449   1.405       .  A
C1448      H1453   1.082       .  S
C1449      C1450   1.420       .  A
C1450      C1451   1.520       .  S
C1451      F1455   1.385       .  S
C1451      F1456   1.384       .  S
C1451      F1457   1.383       .  S
C1454      F1458   1.383       .  S
C1454      F1459   1.384       .  S
C1454      F1460   1.385       .  S
C1461      C1462   1.404       .  A
C1461      C1466   1.407       .  A
C1461      H1468   1.083       .  S
C1462      C1463   1.420       .  A
C1463      C1464   1.407       .  A
C1463      C1470   1.520       .  S
C1464      C1465   1.406       .  A
C1464      H1469   1.083       .  S
C1465      C1466   1.421       .  A
C1466      C1467   1.519   1_455  S
C1467      F1471   1.385       .  S
C1467      F1472   1.383   1_655  S
C1467      F1473   1.383       .  S
C1470      F1474   1.384       .  S
C1470      F1475   1.383       .  S
C1470      F1476   1.385       .  S
C1477      C1478   1.407       .  A
C1477      C1482   1.408       .  A
C1477      H1484   1.083       .  S
C1478      C1479   1.423       .  A
C1479      C1480   1.407       .  A
C1479      C1486   1.518       .  S
C1480      C1481   1.399       .  A
C1480      H1485   1.084       .  S
C1481      C1482   1.417       .  A
C1482      C1483   1.521       .  S
C1483      F1487   1.384       .  S
C1483      F1488   1.381       .  S
C1483      F1489   1.385       .  S
C1486      F1490   1.384       .  S
C1486      F1491   1.382       .  S
C1486      F1492   1.385       .  S
C1493      C1494   1.408   1_455  A
C1493      C1498   1.408       .  A
C1493      H1500   1.082       .  S
C1494      C1495   1.420       .  A
C1495      C1496   1.406   1_655  A
C1495      C1502   1.520       .  S
C1496      C1497   1.404       .  A
C1496      H1501   1.083       .  S
C1497      C1498   1.420       .  A
C1498      C1499   1.522       .  S
C1499      F1503   1.385       .  S
C1499      F1504   1.383       .  S
C1499      F1505   1.384       .  S
C1502      F1506   1.384   1_655  S
C1502      F1507   1.382       .  S
C1502      F1508   1.385       .  S
C1509      C1510   1.407       .  A
C1509      C1514   1.409       .  A
C1509      H1516   1.083       .  S
C1510      C1511   1.421       .  A
C1511      C1512   1.404       .  A
C1511      C1518   1.521       .  S
C1512      C1513   1.403       .  A
C1512      H1517   1.083       .  S
C1513      C1514   1.417       .  A
C1514      C1515   1.519       .  S
C1515      F1519   1.385       .  S
C1515      F1520   1.383       .  S
C1515      F1521   1.383       .  S
C1518      F1522   1.383       .  S
C1518      F1523   1.383       .  S
C1518      F1524   1.385       .  S
C1525      C1526   1.397       .  A
C1525      C1530   1.408       .  A
C1525      H1532   1.083       .  S
C1526      C1527   1.413       .  A
C1527      C1528   1.404       .  A
C1527      C1534   1.516       .  S
C1528      C1529   1.406       .  A
C1528      H1533   1.084       .  S
C1529      C1530   1.427       .  A
C1530      C1531   1.517       .  S
C1531      F1535   1.383       .  S
C1531      F1536   1.383       .  S
C1531      F1537   1.385       .  S
C1534      F1538   1.384       .  S
C1534      F1539   1.382       .  S
C1534      F1540   1.385       .  S
C1541      C1542   1.406       .  A
C1541      C1546   1.408       .  A
C1541      H1548   1.082       .  S
C1542      C1543   1.420       .  A
C1543      C1544   1.407       .  A
C1543      C1550   1.520       .  S
C1544      C1545   1.405       .  A
C1544      H1549   1.082       .  S
C1545      C1546   1.418       .  A
C1546      C1547   1.519       .  S
C1547      F1551   1.384       .  S
C1547      F1552   1.383       .  S
C1547      F1553   1.384       .  S
C1550      F1554   1.384       .  S
C1550      F1555   1.383       .  S
C1550      F1556   1.385       .  S
C1557      C1558   1.397   1_655  A
C1557      C1562   1.409       .  A
C1557      H1564   1.084   1_655  S
C1558      C1559   1.412   1_455  A
C1559      C1560   1.403       .  A
C1559      C1566   1.520       .  S
C1560      C1561   1.406       .  A
C1560      H1565   1.083       .  S
C1561      C1562   1.428       .  A
C1562      C1563   1.522       .  S
C1563      F1567   1.383       .  S
C1563      F1568   1.384       .  S
C1563      F1569   1.385       .  S
C1566      F1570   1.383   1_655  S
C1566      F1571   1.382   1_655  S
C1566      F1572   1.384       .  S
C1573      C1574   1.397   1_545  A
C1573      C1578   1.408       .  A
C1573      H1580   1.083   1_545  S
C1574      C1575   1.415   1_565  A
C1575      C1576   1.405       .  A
C1575      C1582   1.518       .  S
C1576      C1577   1.407       .  A
C1576      H1581   1.083       .  S
C1577      C1578   1.427       .  A
C1578      C1579   1.519       .  S
C1579      F1583   1.385       .  S
C1579      F1584   1.384       .  S
C1579      F1585   1.383       .  S
C1582      F1586   1.385   1_545  S
C1582      F1587   1.382   1_545  S
C1582      F1588   1.385       .  S
C1589      C1590   1.408       .  A
C1589      C1594   1.408       .  A
C1589      H1596   1.082       .  S
C1590      C1591   1.422       .  A
C1591      C1592   1.410       .  A
C1591      C1598   1.519       .  S
C1592      C1593   1.405       .  A
C1592      H1597   1.083       .  S
C1593      C1594   1.420       .  A
C1594      C1595   1.521       .  S
C1595      F1599   1.385       .  S
C1595      F1600   1.382       .  S
C1595      F1601   1.384       .  S
C1598      F1602   1.383       .  S
C1598      F1603   1.383       .  S
C1598      F1604   1.385       .  S
C1605      C1606   1.405       .  A
C1605      C1610   1.406       .  A
C1605      H1612   1.083       .  S
C1606      C1607   1.419       .  A
C1607      C1608   1.407       .  A
C1607      C1614   1.520       .  S
C1608      C1609   1.405       .  A
C1608      H1613   1.083       .  S
C1609      C1610   1.418       .  A
C1610      C1611   1.519       .  S
C1611      F1615   1.385       .  S
C1611      F1616   1.383       .  S
C1611      F1617   1.384       .  S
C1614      F1618   1.384       .  S
C1614      F1619   1.383       .  S
C1614      F1620   1.385       .  S
