geometry optimzed in LAMMPS
_audit_creation_date              2020-12-01 
_audit_creation_method            'lammps2cif' 
_symmetry_space_group_name_H-M    'P1' 
_symmetry_Int_Tables_number       1 
_symmetry_cell_setting            triclinic 
loop_ 
_symmetry_equiv_pos_as_xyz 
  x,y,z 
_cell_length_a                    27.90310304 
_cell_length_b                    27.894369497268567 
_cell_length_c                    51.6607065150633 
_cell_angle_alpha                 89.77162751277281 
_cell_angle_beta                  89.73582918378307 
_cell_angle_gamma                 90.34375760208249 
loop_ 
_atom_site_label 
_atom_site_type_symbol 
_atom_site_fract_x 
_atom_site_fract_y 
_atom_site_fract_z 
_atom_site_charge 
O1          O  0.81334167  0.00571871  0.63210596    -0.73900
O2          O  0.68037725  0.01588958  0.65561625    -0.74000
O3          O  0.76907873  0.03105350  0.67740367    -0.74000
O4          O  0.72592725  0.99536223  0.61059807    -0.74100
O5          O  0.72603544  0.91785153  0.62116282    -0.74000
O6          O  0.77327441  0.95447835  0.68956607    -0.74000
O7          O  0.68437706  0.93930677  0.66771240    -0.74000
O8          O  0.81173017  0.92867055  0.64370179    -0.74000
Ni9        Ni  0.74709843  0.01484730  0.64366583     1.25400
Ni10       Ni  0.74858348  0.93247082  0.65613270     1.25400
C11         C  0.83340575  0.96421929  0.63347052     0.88200
C12         C  0.66025970  0.97765103  0.66476784     0.88200
C13         C  0.78016188  0.99940786  0.69421396     0.88200
C14         C  0.72028152  0.95156608  0.60431804     0.88400
O15         O  0.92719109  0.13353605  0.89119358    -0.73900
O16         O  0.93109560  0.26489820  0.86543267    -0.74000
O17         O  0.91035212  0.17676304  0.84481447    -0.74000
O18         O  0.94265055  0.22090570  0.91162169    -0.74100
O19         O  0.02077247  0.21520490  0.90306900    -0.74000
O20         O  0.98706550  0.16463959  0.83484854    -0.74000
O21         O  0.00792116  0.25406022  0.85511872    -0.74000
O22         O  0.00531839  0.12897723  0.88232518    -0.74000
Ni23       Ni  0.92499294  0.19942351  0.87842385     1.25400
Ni24       Ni  0.00799379  0.19071048  0.86828906     1.25400
C25         C  0.96717943  0.11066705  0.89162367     0.88200
C26         C  0.97159046  0.28126786  0.85704743     0.89800
C27         C  0.94211484  0.16112638  0.82923805     0.88200
C28         C  0.98605159  0.22405227  0.91890443     0.88400
O29         O  0.18233845  0.86916807  0.62877979    -0.73900
O30         O  0.31306966  0.88433378  0.65389253    -0.74000
O31         O  0.22667387  0.85785190  0.67503010    -0.74000
O32         O  0.26854904  0.89120060  0.60744394    -0.74100
O33         O  0.25619800  0.96874619  0.61507680    -0.74000
O34         O  0.20914854  0.93373732  0.68412060    -0.74000
O35         O  0.29705491  0.96070588  0.66278435    -0.74000
O36         O  0.17119279  0.94686570  0.63662330    -0.74000
Ni37       Ni  0.24831220  0.87291075  0.64113159     1.25400
Ni38       Ni  0.23317998  0.95525199  0.65015266     1.25400
C39         C  0.15594995  0.90689834  0.62807047     0.88200
C40         C  0.32668967  0.92609287  0.66164879     0.88200
C41         C  0.20863892  0.88883040  0.69026757     0.88200
C42         C  0.26812538  0.93458862  0.59962217     0.88400
O43         O  0.06829303  0.76717902  0.88626509    -0.73900
O44         O  0.06650858  0.63279215  0.86564136    -0.74000
O45         O  0.08004680  0.71916687  0.84088942    -0.74000
O46         O  0.05952159  0.68184603  0.91074446    -0.74100
O47         O  0.98029212  0.68277146  0.90541889    -0.74000
O48         O  0.00156295  0.72755544  0.83458789    -0.74000
O49         O  0.98818732  0.63997212  0.85843996    -0.74000
O50         O  0.98896869  0.76749316  0.88126464    -0.74000
Ni51       Ni  0.07152201  0.69996491  0.87595214     1.25400
Ni52       Ni  0.98701717  0.70429750  0.86956157     1.25400
C53         C  0.02752909  0.78853124  0.88773527     0.88200
C54         C  0.02573669  0.61431067  0.85938857     0.88200
C55         C  0.04521519  0.73199450  0.82659865     0.88200
C56         C  0.01729140  0.67717008  0.91995456     0.88400
O57         O  0.07200109  0.13744284  0.13064481    -0.73900
O58         O  0.07347028  0.27188538  0.15121453    -0.74000
O59         O  0.09160269  0.18601187  0.17523663    -0.74000
O60         O  0.05897917  0.22262200  0.10707343    -0.74100
O61         O  0.98093474  0.21957831  0.11638545    -0.74000
O62         O  0.01467650  0.17717888  0.18612693    -0.74000
O63         O  0.99660106  0.26375175  0.16239401    -0.74000
O64         O  0.99413143  0.13562767  0.14049736    -0.74000
Ni65       Ni  0.07690371  0.20472220  0.14086356     1.25400
Ni66       Ni  0.99392084  0.19908350  0.15190836     1.25400
C67         C  0.03119221  0.11553114  0.13131503     0.88200
C68         C  0.03365010  0.28998466  0.15915985     0.88200
C69         C  0.05955890  0.17357446  0.19163704     0.88200
C70         C  0.01548387  0.22630251  0.10007073     0.88400
O71         O  0.17988561  0.02431765  0.38540375    -0.73900
O72         O  0.31630234  0.03472752  0.36686176    -0.74000
O73         O  0.23066859  0.04692192  0.34162412    -0.74000
O74         O  0.26442724  0.01808634  0.41070847    -0.74100
O75         O  0.26817598  0.93996386  0.40218983    -0.74000
O76         O  0.22763851  0.96938638  0.33147686    -0.74000
O77         O  0.31369888  0.95753100  0.35611782    -0.74000
O78         O  0.18517677  0.94649260  0.37643306    -0.74000
Ni79       Ni  0.24793604  0.03394635  0.37638774     1.25400
Ni80       Ni  0.24903651  0.95071113  0.36613648     1.25400
C81         C  0.16084982  0.98206180  0.38404822     0.88200
C82         C  0.33723042  0.99635450  0.35874878     0.88200
C83         C  0.22121289  0.01382220  0.32548170     0.88200
C84         C  0.27070816  0.97513320  0.41831220     0.88400
O85         O  0.81472468  0.87108313  0.38972449    -0.73900
O86         O  0.68245889  0.88426912  0.36671958    -0.74000
O87         O  0.76903618  0.86542684  0.34332336    -0.74000
O88         O  0.72915955  0.88517366  0.41291148    -0.74100
O89         O  0.73787804  0.96425903  0.40836640    -0.74000
O90         O  0.78443295  0.94325360  0.33783593    -0.74000
O91         O  0.69646402  0.96230799  0.36085197    -0.74000
O92         O  0.82282553  0.95034926  0.38562486    -0.74000
Ni93       Ni  0.74829798  0.87363010  0.37816679     1.25400
Ni94       Ni  0.76053823  0.95779714  0.37277075     1.25400
C95         C  0.83950581  0.90988077  0.39233781     0.88200
C96         C  0.66759331  0.92670941  0.36105208     0.88200
C97         C  0.78556015  0.89974939  0.32943935     0.88200
C98         C  0.72822841  0.92719744  0.42250298     0.88400
O99         O  0.92901393  0.77175571  0.12932397    -0.73900
O100        O  0.92825552  0.63935631  0.15376614    -0.74000
O101        O  0.91014320  0.72775020  0.17550188    -0.74000
O102        O  0.94198797  0.68445639  0.10817676    -0.74100
O103        O  0.02008063  0.68849556  0.11685531    -0.74000
O104        O  0.98706853  0.73819763  0.18542258    -0.74000
O105        O  0.00510617  0.64870155  0.16428765    -0.74000
O106        O  0.00709564  0.77458850  0.13822469    -0.74000
Ni107      Ni  0.92444769  0.70555808  0.14158068     1.25400
Ni108      Ni  0.00749061  0.71245804  0.15177353     1.25400
C109        C  0.96974487  0.79380401  0.12895080     0.88200
C110        C  0.96837811  0.62189965  0.16155459     0.88200
C111        C  0.94220888  0.74269761  0.19110090     0.88200
C112        C  0.98547541  0.68008844  0.10100001     0.88400
C113        C  0.86991754  0.79055511  0.24214883     0.20800
C114        C  0.82676742  0.79584025  0.25581202    -0.39000
C115        C  0.82406619  0.83505833  0.27258645     0.19800
C116        C  0.86151768  0.86704959  0.27585040     0.22500
C117        C  0.90519900  0.86181973  0.26192274    -0.39600
C118        C  0.90792734  0.82211651  0.24484774     0.21200
N119        N  0.87976078  0.75689537  0.22444447    -0.32800
C120        C  0.92441360  0.76622777  0.21517815    -0.10400
C121        C  0.94353496  0.80680667  0.22763292    -0.29200
N122        N  0.85070065  0.89868021  0.29490499    -0.45800
C123        C  0.80618656  0.88620423  0.30381471    -0.05100
C124        C  0.78872902  0.84693719  0.29002464    -0.22400
H125        H  0.79737299  0.77066859  0.25373987     0.19400
H126        H  0.93493315  0.88644195  0.26438535     0.18200
H127        H  0.97723135  0.82463271  0.22339142     0.14400
H128        H  0.75617639  0.82682190  0.29394037     0.14300
H129        H  0.85621037  0.73025756  0.21803121     0.32500
H130        H  0.87378206  0.92422737  0.30288741     0.35200
C131        C  0.96463240  0.90315972  0.40066615     0.20800
C132        C  0.01004312  0.89021483  0.39176642    -0.39000
C133        C  0.04587293  0.92520214  0.39419410     0.19800
C134        C  0.03807182  0.97000247  0.40477395     0.22500
C135        C  0.99266362  0.98276895  0.41419115    -0.39600
C136        C  0.95645175  0.94767906  0.41163598     0.21200
N137        N  0.92313227  0.88013085  0.39569366    -0.32800
C138        C  0.88821454  0.91073142  0.40293724    -0.10400
C139        C  0.90772043  0.95237359  0.41373629    -0.29200
N140        N  0.07778559  0.99794799  0.40265277    -0.45800
C141        C  0.11066166  0.97006600  0.39060941    -0.05100
C142        C  0.09176814  0.92475973  0.38523683    -0.22400
H143        H  0.01636614  0.85653917  0.38201844     0.19400
H144        H  0.98523014  0.01840478  0.42132261     0.18200
H145        H  0.88871492  0.98478024  0.41877930     0.14400
H146        H  0.10921613  0.89532447  0.37544778     0.14300
H147        H  0.91893200  0.84894940  0.38478511     0.32500
H148        H  0.08201303  0.03339710  0.40869617     0.35200
C149        C  0.55058582  0.97857189  0.35679760     0.20800
C150        C  0.51586972  0.01418670  0.36122616    -0.39000
C151        C  0.46822990  0.00140300  0.35564740     0.19800
C152        C  0.45664193  0.95663533  0.34606125     0.22500
C153        C  0.49126201  0.92083874  0.34192463    -0.39600
C154        C  0.53875763  0.93337445  0.34789055     0.21200
N155        N  0.59771277  0.98134834  0.36171437    -0.32800
C156        C  0.61635332  0.93754123  0.35641752    -0.10400
C157        C  0.58050295  0.90637413  0.34775244    -0.29200
N158        N  0.40896279  0.95178210  0.34416846    -0.45800
C159        C  0.38934455  0.99311426  0.35309915    -0.05100
C160        C  0.42542674  0.02542835  0.36018128    -0.22400
H161        H  0.52515746  0.04878081  0.36924593     0.19400
H162        H  0.48160084  0.88525869  0.33540151     0.18200
H163        H  0.58426632  0.86909611  0.34243674     0.14400
H164        H  0.42100869  0.06002852  0.36925315     0.14300
H165        H  0.61596014  0.01099704  0.36916542     0.32500
H166        H  0.39072043  0.92063303  0.33872981     0.35200
C167        C  0.96738343  0.91721065  0.11163145     0.20800
C168        C  0.94913761  0.96371776  0.11261662    -0.39000
C169        C  0.98339070  0.00067102  0.11296580     0.19800
C170        C  0.03233562  0.99254285  0.11237433     0.22500
C171        C  0.05060086  0.94604842  0.11074016    -0.39600
C172        C  0.01630790  0.90903128  0.11040205     0.21200
N173        N  0.94294253  0.87609947  0.11600816    -0.32800
C174        C  0.97687102  0.84187725  0.11794495    -0.10400
C175        C  0.02267473  0.86095376  0.11383688    -0.29200
N176        N  0.05710764  0.03322272  0.11722414    -0.45800
C177        C  0.02327870  0.06701674  0.12119045    -0.05100
C178        C  0.97723427  0.04812831  0.11814343    -0.22400
H179        H  0.91124144  0.97054559  0.11507756     0.19400
H180        H  0.08864380  0.93894531  0.11178250     0.18200
H181        H  0.05663113  0.84285621  0.11612636     0.14400
H182        H  0.94343768  0.06596651  0.12155140     0.14300
H183        H  0.90640580  0.87245900  0.12011192     0.32500
H184        H  0.09407364  0.03684316  0.11970099     0.35200
C185        C  0.01522128  0.50322282  0.16598258     0.20800
C186        C  0.05160999  0.46853077  0.16464512    -0.39000
C187        C  0.03615514  0.42056403  0.16473428     0.19800
C188        C  0.98806182  0.40858829  0.16625587     0.22500
C189        C  0.95165717  0.44326218  0.16702351    -0.39600
C190        C  0.96708421  0.49120461  0.16673374     0.21200
N191        N  0.02070958  0.55095849  0.16542172    -0.32800
C192        C  0.97596565  0.56993797  0.16539439    -0.10400
C193        C  0.94130497  0.53362004  0.16612498    -0.29200
N194        N  0.98236629  0.36092401  0.16559405    -0.45800
C195        C  0.02687295  0.34190820  0.16323721    -0.05100
C196        C  0.06165419  0.37812468  0.16259232    -0.22400
H197        H  0.08914707  0.47826701  0.16327905     0.19400
H198        H  0.91405135  0.43353680  0.16744281     0.18200
H199        H  0.90277144  0.53757606  0.16550363     0.14400
H200        H  0.09996466  0.37411093  0.16018198     0.14300
H201        H  0.05325169  0.56957394  0.16396032     0.32500
H202        H  0.94968790  0.34243909  0.16572265     0.35200
C203        C  0.14403299  0.05137342  0.27452871     0.20800
C204        C  0.09957656  0.05709709  0.26187129    -0.39000
C205        C  0.09525943  0.09809011  0.24589157     0.19800
C206        C  0.13246047  0.13067664  0.24302058     0.22500
C207        C  0.17644827  0.12519216  0.25572201    -0.39600
C208        C  0.18076215  0.08438094  0.27144172     0.21200
N209        N  0.15638536  0.01754222  0.29206985    -0.32800
C210        C  0.20113231  0.02944114  0.30035236    -0.10400
C211        C  0.21730656  0.07084859  0.28768282    -0.29200
N212        N  0.12153594  0.16425782  0.22537428    -0.45800
C213        C  0.07715715  0.15338770  0.21641641    -0.05100
C214        C  0.05913500  0.11252290  0.22910612    -0.22400
H215        H  0.07063989  0.03140623  0.26415748     0.19400
H216        H  0.20542567  0.15085692  0.25341812     0.18200
H217        H  0.24965335  0.09104376  0.29172741     0.14400
H218        H  0.02642843  0.09320899  0.22474203     0.14300
H219        H  0.13402755  0.99085518  0.29976159     0.32500
H220        H  0.14458758  0.19101026  0.21834110     0.35200
C221        C  0.02445883  0.66435432  0.03530498     0.20800
C222        C  0.05512083  0.66896859  0.01378953    -0.39000
C223        C  0.03322557  0.66496712  0.98940095     0.19800
C224        C  0.98445000  0.65751885  0.98648142     0.22500
C225        C  0.95388671  0.65250255  0.00797292    -0.39600
C226        C  0.97583514  0.65602838  0.03234019     0.21200
N227        N  0.03547584  0.67102664  0.06048587    -0.32800
C228        C  0.99337227  0.66704869  0.07357592    -0.10400
C229        C  0.95569303  0.65715563  0.05661786    -0.29200
N230        N  0.97198389  0.65917661  0.96127153    -0.45800
C231        C  0.01330178  0.66750588  0.94805540    -0.05100
C232        C  0.05214652  0.67091552  0.96498194    -0.22400
H233        H  0.09295609  0.67676224  0.01583818     0.19400
H234        H  0.91554880  0.64793743  0.00590630     0.18200
H235        H  0.91788388  0.65458387  0.06125507     0.14400
H236        H  0.08906275  0.67923027  0.96012634     0.14300
H237        H  0.06880093  0.68061310  0.06803412     0.32500
H238        H  0.93749280  0.65649044  0.95365508     0.35200
C239        C  0.28051184  0.97530979  0.53390699     0.20800
C240        C  0.27547455  0.00677295  0.51285385    -0.39000
C241        C  0.27965050  0.98610950  0.48817427     0.19800
C242        C  0.28767862  0.93769869  0.48446001     0.22500
C243        C  0.29302666  0.90622181  0.50555439    -0.39600
C244        C  0.28932060  0.92699915  0.53029608     0.21200
N245        N  0.27446243  0.98535034  0.55925648    -0.32800
C246        C  0.27939466  0.94301519  0.57191956    -0.10400
C247        C  0.28915542  0.90604263  0.55445344    -0.29200
N248        N  0.28696930  0.92670988  0.45897445    -0.45800
C249        C  0.27869705  0.96869980  0.44646253    -0.05100
C250        C  0.27421149  0.00631594  0.46412087    -0.22400
H251        H  0.26757105  0.04439297  0.51546046     0.19400
H252        H  0.29832704  0.86814096  0.50293929     0.18200
H253        H  0.29258637  0.86820042  0.55873715     0.14400
H254        H  0.26602701  0.04343175  0.45993643     0.14300
H255        H  0.26506977  0.01831900  0.56726176     0.32500
H256        H  0.29058712  0.89281659  0.45072450     0.35200
C257        C  0.13147709  0.85353047  0.74336456     0.20800
C258        C  0.09123957  0.85429061  0.76018571    -0.39000
C259        C  0.08099950  0.81110243  0.77374249     0.19800
C260        C  0.10881429  0.77065627  0.77058876     0.22500
C261        C  0.14869308  0.76997795  0.75402804    -0.39600
C262        C  0.15887490  0.81271945  0.74073628     0.21200
N263        N  0.14791077  0.88857096  0.72724726    -0.32800
C264        C  0.18589151  0.86942772  0.71430714    -0.10400
C265        C  0.19368438  0.82239547  0.72257905    -0.29200
N266        N  0.09499886  0.73566930  0.78696794    -0.45800
C267        C  0.05809914  0.75319060  0.80112898    -0.05100
C268        C  0.04792227  0.80027684  0.79323384    -0.22400
H269        H  0.06983804  0.88616363  0.76273631     0.19400
H270        H  0.17064930  0.73837639  0.75183186     0.18200
H271        H  0.21950609  0.79726226  0.71493254     0.14400
H272        H  0.02347877  0.82497351  0.80244042     0.14300
H273        H  0.13239163  0.92204583  0.72403608     0.32500
H274        H  0.11249862  0.70310421  0.78994853     0.35200
C275        C  0.97425499  0.24210520  0.98702825     0.20800
C276        C  0.94896011  0.24171649  0.01067901    -0.39000
C277        C  0.97711046  0.24194276  0.03310641     0.19800
C278        C  0.02662085  0.24292295  0.03178398     0.22500
C279        C  0.05188616  0.24281185  0.00815521    -0.39600
C280        C  0.02376680  0.24215408  0.98574502     0.21200
N281        N  0.95570743  0.23853008  0.96325275    -0.32800
C282        C  0.99331889  0.23546684  0.94653754    -0.10400
C283        C  0.03666685  0.23789051  0.95987246    -0.29200
N284        N  0.04531221  0.24007702  0.05553872    -0.45800
C285        C  0.00784128  0.23650690  0.07232373    -0.05100
C286        C  0.96437144  0.23785461  0.05905014    -0.22400
H287        H  0.91022923  0.23975589  0.01150912     0.19400
H288        H  0.09063067  0.24167161  0.00734160     0.18200
H289        H  0.07244711  0.23440494  0.95196032     0.14400
H290        H  0.92866381  0.23388283  0.06706985     0.14300
H291        H  0.91929056  0.23571698  0.95881669     0.32500
H292        H  0.08179237  0.23826348  0.05994530     0.35200
C293        C  0.01077951  0.99647597  0.90874150     0.20800
C294        C  0.04701555  0.96177482  0.90766855    -0.39000
C295        C  0.03129246  0.91427364  0.90558764     0.19800
C296        C  0.98300747  0.90274464  0.90519018     0.22500
C297        C  0.94680895  0.93736152  0.90625328    -0.39600
C298        C  0.96250615  0.98489200  0.90776777     0.21200
N299        N  0.01684159  0.04369979  0.90607434    -0.32800
C300        C  0.97257833  0.06238545  0.90241188    -0.10400
C301        C  0.93734597  0.02697212  0.90405955    -0.29200
N302        N  0.97701012  0.85626006  0.90023853    -0.45800
C303        C  0.02146964  0.83779678  0.89691389    -0.05100
C304        C  0.05666864  0.87277163  0.90044528    -0.22400
H305        H  0.08460907  0.97142016  0.90658297     0.19400
H306        H  0.90931740  0.92810026  0.90407785     0.18200
H307        H  0.89957829  0.03053987  0.89983311     0.14400
H308        H  0.09496849  0.86920172  0.89776523     0.14300
H309        H  0.04974306  0.06146891  0.90411244     0.32500
H310        H  0.94416234  0.83875824  0.89771040     0.35200
C311        C  0.96839226  0.40887552  0.84924298     0.20800
C312        C  0.94845942  0.45485288  0.84993876    -0.39000
C313        C  0.98135345  0.49313352  0.85052231     0.19800
C314        C  0.03049231  0.48658517  0.85081305     0.22500
C315        C  0.05048647  0.44053543  0.84980389    -0.39600
C316        C  0.01752808  0.40218238  0.84880567     0.21200
N317        N  0.94489105  0.36655051  0.85082266    -0.32800
C318        C  0.97940362  0.33260996  0.85122489    -0.10400
C319        C  0.02502211  0.35355486  0.84966941    -0.29200
N320        N  0.05373506  0.52894773  0.85334296    -0.45800
C321        C  0.01888237  0.56258500  0.85437552    -0.05100
C322        C  0.97350074  0.54142603  0.85256004    -0.22400
H323        H  0.91012686  0.46043180  0.85073376     0.19400
H324        H  0.08879989  0.43486060  0.85049489     0.18200
H325        H  0.05926330  0.33567521  0.85097069     0.14400
H326        H  0.93906323  0.55898069  0.85374282     0.14300
H327        H  0.90796996  0.36125125  0.85277995     0.32500
H328        H  0.09067400  0.53446206  0.85492559     0.35200
C329        C  0.71193329  0.90994678  0.49087222     0.20800
C330        C  0.71282106  0.88418630  0.51446092    -0.39000
C331        C  0.70855353  0.91174727  0.53714168     0.19800
C332        C  0.70343887  0.96099280  0.53603779     0.22500
C333        C  0.70311359  0.98662912  0.51257706    -0.39600
C334        C  0.70773184  0.95928929  0.49004524     0.21200
N335        N  0.71783409  0.89262986  0.46682064    -0.32800
C336        C  0.71799479  0.93115602  0.45056700    -0.10400
C337        C  0.71173723  0.97347596  0.46440960    -0.29200
N338        N  0.70342103  0.97962949  0.55986934    -0.45800
C339        C  0.70941552  0.94263127  0.57666939    -0.05100
C340        C  0.71230421  0.89925078  0.56319431    -0.22400
H341        H  0.71792447  0.84576634  0.51509957     0.19400
H342        H  0.70093132  0.02534556  0.51198659     0.18200
H343        H  0.71167693  0.00972895  0.45687496     0.14400
H344        H  0.71955893  0.86409087  0.57113463     0.14300
H345        H  0.72333754  0.85679988  0.46185346     0.32500
H346        H  0.70237916  0.01614573  0.56431734     0.35200
C347        C  0.94661093  0.91385922  0.61707312     0.20800
C348        C  0.98211052  0.87846521  0.61908384    -0.39000
C349        C  0.02934405  0.89400534  0.61473382     0.19800
C350        C  0.03978386  0.94115894  0.60830156     0.22500
C351        C  0.00421566  0.97636988  0.60602164    -0.39600
C352        C  0.95718162  0.96108641  0.61094850     0.21200
N353        N  0.90069958  0.90961233  0.62433602    -0.32800
C354        C  0.88187632  0.95438993  0.62344348    -0.10400
C355        C  0.91583185  0.98756012  0.61466801    -0.29200
N356        N  0.08702648  0.94906076  0.60951484    -0.45800
C357        C  0.10715450  0.90735129  0.61738632    -0.05100
C358        C  0.07238238  0.87154643  0.62025791    -0.22400
H359        H  0.97389262  0.84245021  0.62568318     0.19400
H360        H  0.01304622  0.01376688  0.60281175     0.18200
H361        H  0.91196341  0.02605281  0.61322096     0.14400
H362        H  0.07706107  0.83618695  0.62853551     0.14300
H363        H  0.88404400  0.87838929  0.63120424     0.32500
H364        H  0.10406453  0.98237352  0.60773186     0.35200
C365        C  0.53187704  0.98777251  0.67187704     0.20800
C366        C  0.48589081  0.00786731  0.66916708    -0.39000
C367        C  0.44686664  0.97546686  0.67096767     0.19800
C368        C  0.45314192  0.92676021  0.67481581     0.22500
C369        C  0.49879754  0.90699592  0.67807947    -0.39600
C370        C  0.53753086  0.93928288  0.67659930     0.21200
N371        N  0.57504878  0.00942388  0.66827825    -0.32800
C372        C  0.60819407  0.97419183  0.67090504    -0.10400
C373        C  0.58581717  0.93036021  0.67642778    -0.29200
N374        N  0.41115943  0.90280877  0.67291985    -0.45800
C375        C  0.37750455  0.93644074  0.66808297    -0.05100
C376        C  0.39840822  0.98224532  0.66705880    -0.22400
H377        H  0.48089729  0.04551431  0.66487959     0.19400
H378        H  0.50399801  0.86881422  0.68046470     0.18200
H379        H  0.60258600  0.89560189  0.67814565     0.14400
H380        H  0.38088900  0.01566858  0.66236572     0.14300
H381        H  0.58134950  0.04512805  0.66305834     0.32500
H382        H  0.40600574  0.86570572  0.67391958     0.35200
C383        C  0.86861550  0.11483725  0.77848867     0.20800
C384        C  0.82549116  0.11039900  0.76478727    -0.39000
C385        C  0.82152334  0.07060851  0.74841763     0.19800
C386        C  0.85761970  0.03722796  0.74585394     0.22500
C387        C  0.90123355  0.04181500  0.75963170    -0.39600
C388        C  0.90537761  0.08213380  0.77608756     0.21200
N389        N  0.87956634  0.14852837  0.79600571    -0.32800
C390        C  0.92373223  0.13805089  0.80527122    -0.10400
C391        C  0.94135534  0.09674344  0.79310980    -0.29200
N392        N  0.84553289  0.00416131  0.72783317    -0.45800
C393        C  0.80163206  0.01698305  0.71876051    -0.05100
C394        C  0.78582855  0.05831691  0.73126050    -0.22400
H395        H  0.79703486  0.13638410  0.76664270     0.19400
H396        H  0.92983233  0.01604663  0.75762129     0.18200
H397        H  0.97415664  0.07794959  0.79750895     0.14400
H398        H  0.75385809  0.07863990  0.72702316     0.14300
H399        H  0.85700113  0.17591128  0.80232819     0.32500
H400        H  0.86731722  0.97682505  0.72072838     0.35200
loop_ 
_geom_bond_atom_site_label_1 
_geom_bond_atom_site_label_2 
_geom_bond_distance 
_geom_bond_site_symmetry_2 
_ccdc_geom_bond_type 
O1           Ni9   1.958       .  S
O1           C11   1.291   1_545  A
O2           Ni9   1.959       .  S
O2           C12   1.289   1_545  A
O3           Ni9   1.906       .  S
O3           C13   1.276   1_545  A
O4           Ni9   1.891   1_565  S
O4           C14   1.274       .  A
O5          Ni10   1.959       .  S
O5           C14   1.290       .  A
O6          Ni10   1.962       .  S
O6           C13   1.290       .  A
O7          Ni10   1.897       .  S
O7           C12   1.276       .  A
O8          Ni10   1.876       .  S
O8           C11   1.270       .  A
Ni9         Ni10   2.385   1_545  S
C11         C354   1.474       .  S
C12         C372   1.488       .  S
C13         C393   1.489   1_565  S
C14         C339   1.483       .  S
O15         Ni23   1.952       .  S
O15          C25   1.289       .  A
O16         Ni23   1.949       .  S
O16          C26   1.289       .  A
O17         Ni23   1.896       .  S
O17          C27   1.274       .  A
O18         Ni23   1.886       .  S
O18          C28   1.272       .  A
O19         Ni24   1.958       .  S
O19          C28   1.291   1_455  A
O20         Ni24   1.967   1_655  S
O20          C27   1.292       .  A
O21         Ni24   1.891       .  S
O21          C26   1.274   1_455  A
O22         Ni24   1.867       .  S
O22          C25   1.269   1_455  A
Ni23        Ni24   2.386   1_655  S
C25         C300   1.464       .  S
C26         C318   1.477       .  S
C27         C390   1.490       .  S
C28         C282   1.478       .  S
O29         Ni37   1.953       .  S
O29          C39   1.289       .  A
O30         Ni37   1.951       .  S
O30          C40   1.289       .  A
O31         Ni37   1.894       .  S
O31          C41   1.275       .  A
O32         Ni37   1.894       .  S
O32          C42   1.275       .  A
O33         Ni38   1.954       .  S
O33          C42   1.290       .  A
O34         Ni38   1.966       .  S
O34          C41   1.291       .  A
O35         Ni38   1.906       .  S
O35          C40   1.276       .  A
O36         Ni38   1.882       .  S
O36          C39   1.272       .  A
Ni37        Ni38   2.385       .  S
C39         C357   1.472       .  S
C40         C375   1.485       .  S
C41         C264   1.490       .  S
C42         C246   1.481       .  S
O43         Ni51   1.954       .  S
O43          C53   1.289       .  A
O44         Ni51   1.954       .  S
O44          C54   1.289       .  A
O45         Ni51   1.900       .  S
O45          C55   1.275       .  A
O46         Ni51   1.893       .  S
O46          C56   1.275       .  A
O47         Ni52   1.953       .  S
O47          C56   1.289   1_655  A
O48         Ni52   1.957   1_455  S
O48          C55   1.289       .  A
O49         Ni52   1.887       .  S
O49          C54   1.273   1_655  A
O50         Ni52   1.866       .  S
O50          C53   1.269   1_655  A
Ni51        Ni52   2.386   1_455  S
C53         C303   1.466       .  S
C54         C321   1.478       .  S
C55         C267   1.482       .  S
C56         C231   1.479       .  S
O57         Ni65   1.956       .  S
O57          C67   1.289       .  A
O58         Ni65   1.953       .  S
O58          C68   1.289       .  A
O59         Ni65   1.896       .  S
O59          C69   1.275       .  A
O60         Ni65   1.884       .  S
O60          C70   1.273       .  A
O61         Ni66   1.956       .  S
O61          C70   1.290   1_655  A
O62         Ni66   1.959   1_455  S
O62          C69   1.290       .  A
O63         Ni66   1.887       .  S
O63          C68   1.273   1_655  A
O64         Ni66   1.868       .  S
O64          C67   1.270   1_655  A
Ni65        Ni66   2.386   1_455  S
C67         C177   1.469       .  S
C68         C195   1.478       .  S
C69         C213   1.483       .  S
C70         C285   1.477       .  S
O71         Ni79   1.970       .  S
O71          C81   1.292   1_545  A
O72         Ni79   1.968       .  S
O72          C82   1.293   1_545  A
O73         Ni79   1.896       .  S
O73          C83   1.274       .  A
O74         Ni79   1.885       .  S
O74          C84   1.273   1_545  A
O75         Ni80   1.962       .  S
O75          C84   1.291       .  A
O76         Ni80   1.960       .  S
O76          C83   1.290   1_565  A
O77         Ni80   1.883       .  S
O77          C82   1.271       .  A
O78         Ni80   1.860       .  S
O78          C81   1.268       .  A
Ni79        Ni80   2.384   1_545  S
C81         C141   1.475       .  S
C82         C159   1.485       .  S
C83         C210   1.481       .  S
C84         C249   1.483       .  S
O85         Ni93   1.952       .  S
O85          C95   1.289       .  A
O86         Ni93   1.957       .  S
O86          C96   1.290       .  A
O87         Ni93   1.903       .  S
O87          C97   1.277       .  A
O88         Ni93   1.900       .  S
O88          C98   1.275       .  A
O89         Ni94   1.951       .  S
O89          C98   1.290       .  A
O90         Ni94   1.966       .  S
O90          C97   1.291       .  A
O91         Ni94   1.898       .  S
O91          C96   1.275       .  A
O92         Ni94   1.876       .  S
O92          C95   1.271       .  A
Ni93        Ni94   2.386       .  S
C95         C138   1.468       .  S
C96         C156   1.483       .  S
C97         C123   1.492       .  S
C98         C336   1.481       .  S
O99        Ni107   1.953       .  S
O99         C109   1.289       .  A
O100       Ni107   1.952       .  S
O100        C110   1.289       .  A
O101       Ni107   1.902       .  S
O101        C111   1.276       .  A
O102       Ni107   1.889       .  S
O102        C112   1.274       .  A
O103       Ni108   1.957       .  S
O103        C112   1.290   1_455  A
O104       Ni108   1.967   1_655  S
O104        C111   1.291       .  A
O105       Ni108   1.891       .  S
O105        C110   1.274   1_455  A
O106       Ni108   1.867       .  S
O106        C109   1.270   1_455  A
Ni107      Ni108   2.385   1_655  S
C109        C174   1.467       .  S
C110        C192   1.479       .  S
C111        C120   1.493       .  S
C112        C228   1.480       .  S
C113        C118   1.382       .  A
C113        C114   1.402       .  A
C113        N119   1.342       .  A
C114        C115   1.400       .  A
C114        H125   1.082       .  S
C115        C124   1.375       .  A
C115        C116   1.381       .  A
C116        C117   1.421       .  A
C116        N122   1.359       .  A
C117        C118   1.421       .  A
C117        H126   1.082       .  S
C118        C121   1.400       .  A
N119        C120   1.356       .  A
N119        H129   1.045       .  S
C120        C121   1.408       .  A
C121        H127   1.082       .  S
N122        C123   1.365       .  A
N122        H130   1.045       .  S
C123        C124   1.396       .  A
C124        H128   1.083       .  S
C131        C136   1.387       .  A
C131        C132   1.396   1_655  A
C131        N137   1.347       .  A
C132        C133   1.399       .  A
C132        H143   1.083       .  S
C133        C142   1.360       .  A
C133        C134   1.384       .  A
C134        C135   1.404   1_455  A
C134        N140   1.355       .  A
C135        C136   1.410       .  A
C135        H144   1.082   1_565  S
C136        C139   1.371       .  A
N137        C138   1.352       .  A
N137        H147   1.045       .  S
C138        C139   1.399       .  A
C139        H145   1.083       .  S
N140        C141   1.357       .  A
N140        H148   1.044   1_565  S
C141        C142   1.396       .  A
C142        H146   1.083       .  S
C149        C154   1.382       .  A
C149        C150   1.410   1_565  A
C149        N155   1.342       .  A
C150        C151   1.406       .  A
C150        H161   1.082       .  S
C151        C160   1.392       .  A
C151        C152   1.382   1_545  A
C152        C153   1.410       .  A
C152        N158   1.341       .  A
C153        C154   1.405       .  A
C153        H162   1.082       .  S
C154        C157   1.391       .  A
N155        C156   1.359       .  A
N155        H165   1.044   1_565  S
C156        C157   1.398       .  A
C157        H163   1.082       .  S
N158        C159   1.361       .  A
N158        H166   1.044       .  S
C159        C160   1.398   1_565  A
C160        H164   1.082       .  S
C167        C172   1.387   1_655  A
C167        C168   1.397       .  A
C167        N173   1.348       .  A
C168        C169   1.402   1_565  A
C168        H179   1.083       .  S
C169        C178   1.363       .  A
C169        C170   1.386   1_645  A
C170        C171   1.399       .  A
C170        N176   1.350   1_565  A
C171        C172   1.404       .  A
C171        H180   1.083       .  S
C172        C175   1.365       .  A
N173        C174   1.352       .  A
N173        H183   1.045       .  S
C174        C175   1.396   1_655  A
C175        H181   1.083       .  S
N176        C177   1.354       .  A
N176        H184   1.044       .  S
C177        C178   1.396   1_455  A
C178        H182   1.083       .  S
C185        C190   1.383   1_455  A
C185        C186   1.408       .  A
C185        N191   1.340       .  A
C186        C187   1.403       .  A
C186        H197   1.082       .  S
C187        C196   1.389       .  A
C187        C188   1.383   1_455  A
C188        C189   1.407       .  A
C188        N194   1.339       .  A
C189        C190   1.402       .  A
C189        H198   1.082       .  S
C190        C193   1.389       .  A
N191        C192   1.359   1_455  A
N191        H201   1.046       .  S
C192        C193   1.397       .  A
C193        H199   1.082       .  S
N194        C195   1.358   1_655  A
N194        H202   1.045       .  S
C195        C196   1.397       .  A
C196        H200   1.082       .  S
C203        C208   1.382       .  A
C203        C204   1.415       .  A
C203        N209   1.353       .  A
C204        C205   1.414       .  A
C204        H215   1.082       .  S
C205        C214   1.393       .  A
C205        C206   1.383       .  A
C206        C207   1.403       .  A
C206        N212   1.342       .  A
C207        C208   1.402       .  A
C207        H216   1.083       .  S
C208        C211   1.377       .  A
N209        C210   1.361       .  A
N209        H219   1.045   1_545  S
C210        C211   1.397       .  A
C211        H217   1.083       .  S
N212        C213   1.357       .  A
N212        H220   1.045       .  S
C213        C214   1.402       .  A
C214        H218   1.082       .  S
C221        C226   1.384   1_455  A
C221        C222   1.405       .  A
C221        N227   1.351       .  A
C222        C223   1.407   1_554  A
C222        H233   1.082       .  S
C223        C232   1.374       .  A
C223        C224   1.385   1_455  A
C224        C225   1.403   1_556  A
C224        N230   1.350       .  A
C225        C226   1.406       .  A
C225        H234   1.082       .  S
C226        C229   1.373       .  A
N227        C228   1.357   1_455  A
N227        H237   1.044       .  S
C228        C229   1.399       .  A
C229        H235   1.083       .  S
N230        C231   1.356   1_655  A
N230        H238   1.044       .  S
C231        C232   1.399       .  A
C232        H236   1.083       .  S
C239        C244   1.384       .  A
C239        C240   1.403   1_565  A
C239        N245   1.350       .  A
C240        C241   1.406   1_545  A
C240        H251   1.082       .  S
C241        C250   1.372   1_565  A
C241        C242   1.384       .  A
C242        C243   1.406       .  A
C242        N248   1.353       .  A
C243        C244   1.409       .  A
C243        H252   1.082       .  S
C244        C247   1.376       .  A
N245        C246   1.356       .  A
N245        H255   1.044   1_565  S
C246        C247   1.400       .  A
C247        H253   1.083       .  S
N248        C249   1.357       .  A
N248        H256   1.044       .  S
C249        C250   1.399   1_565  A
C250        H254   1.083       .  S
C257        C262   1.382       .  A
C257        C258   1.417       .  A
C257        N263   1.358       .  A
C258        C259   1.418       .  A
C258        H269   1.082       .  S
C259        C268   1.394       .  A
C259        C260   1.383       .  A
C260        C261   1.401       .  A
C260        N266   1.343       .  A
C261        C262   1.400       .  A
C261        H270   1.083       .  S
C262        C265   1.372       .  A
N263        C264   1.363       .  A
N263        H273   1.045       .  S
C264        C265   1.397       .  A
C265        H271   1.083       .  S
N266        C267   1.355       .  A
N266        H274   1.045       .  S
C267        C268   1.405       .  A
C268        H272   1.082       .  S
C275        C280   1.383   1_655  A
C275        C276   1.408   1_556  A
C275        N281   1.339       .  A
C276        C277   1.403       .  A
C276        H287   1.082       .  S
C277        C286   1.389       .  A
C277        C278   1.383   1_655  A
C278        C279   1.407       .  A
C278        N284   1.338       .  A
C279        C280   1.402   1_554  A
C279        H288   1.082       .  S
C280        C283   1.388       .  A
N281        C282   1.359       .  A
N281        H291   1.045       .  S
C282        C283   1.396   1_655  A
C283        H289   1.082       .  S
N284        C285   1.358       .  A
N284        H292   1.046       .  S
C285        C286   1.397   1_455  A
C286        H290   1.082       .  S
C293        C298   1.384   1_455  A
C293        C294   1.405       .  A
C293        N299   1.334   1_565  A
C294        C295   1.398       .  A
C294        H305   1.083       .  S
C295        C304   1.387       .  A
C295        C296   1.384   1_455  A
C296        C297   1.403       .  A
C296        N302   1.332       .  A
C297        C298   1.396       .  A
C297        H306   1.083       .  S
C298        C301   1.384   1_565  A
N299        C300   1.357   1_455  A
N299        H309   1.045       .  S
C300        C301   1.392       .  A
C301        H307   1.082       .  S
N302        C303   1.357   1_655  A
N302        H310   1.045       .  S
C303        C304   1.393       .  A
C304        H308   1.082       .  S
C311        C316   1.385   1_655  A
C311        C312   1.402       .  A
C311        N317   1.349       .  A
C312        C313   1.404       .  A
C312        H323   1.082       .  S
C313        C322   1.370       .  A
C313        C314   1.384   1_655  A
C314        C315   1.405       .  A
C314        N320   1.352       .  A
C315        C316   1.408       .  A
C315        H324   1.082       .  S
C316        C319   1.374       .  A
N317        C318   1.355       .  A
N317        H327   1.044       .  S
C318        C319   1.399   1_655  A
C319        H325   1.083       .  S
N320        C321   1.356       .  A
N320        H328   1.045       .  S
C321        C322   1.398   1_455  A
C322        H326   1.083       .  S
C329        C334   1.383       .  A
C329        C330   1.413       .  A
C329        N335   1.345       .  A
C330        C331   1.409       .  A
C330        H341   1.082       .  S
C331        C340   1.394       .  A
C331        C332   1.383       .  A
C332        C333   1.405       .  A
C332        N338   1.338       .  A
C333        C334   1.400       .  A
C333        H342   1.082   1_565  S
C334        C337   1.385       .  A
N335        C336   1.361       .  A
N335        H345   1.045       .  S
C336        C337   1.394       .  A
C337        H343   1.082   1_565  S
N338        C339   1.357       .  A
N338        H346   1.046   1_565  S
C339        C340   1.401       .  A
C340        H344   1.082       .  S
C347        C352   1.383       .  A
C347        C348   1.407       .  A
C347        N353   1.338       .  A
C348        C349   1.402   1_655  A
C348        H359   1.083       .  S
C349        C358   1.388       .  A
C349        C350   1.384       .  A
C350        C351   1.405       .  A
C350        N356   1.337       .  A
C351        C352   1.399   1_455  A
C351        H360   1.082   1_565  S
C352        C355   1.387       .  A
N353        C354   1.359       .  A
N353        H363   1.045       .  S
C354        C355   1.393       .  A
C355        H361   1.082   1_565  S
N356        C357   1.357       .  A
N356        H364   1.045       .  S
C357        C358   1.395       .  A
C358        H362   1.082       .  S
C365        C370   1.384       .  A
C365        C366   1.411   1_565  A
C365        N371   1.356   1_565  A
C366        C367   1.413   1_545  A
C366        H377   1.082       .  S
C367        C376   1.382       .  A
C367        C368   1.385       .  A
C368        C369   1.402       .  A
C368        N374   1.349       .  A
C369        C370   1.404       .  A
C369        H378   1.082       .  S
C370        C373   1.372       .  A
N371        C372   1.360   1_545  A
N371        H381   1.044       .  S
C372        C373   1.397       .  A
C373        H379   1.083       .  S
N374        C375   1.355       .  A
N374        H382   1.045       .  S
C375        C376   1.402       .  A
C376        H380   1.082   1_565  S
C383        C388   1.382       .  A
C383        C384   1.404       .  A
C383        N389   1.342       .  A
C384        C385   1.402       .  A
C384        H395   1.082       .  S
C385        C394   1.379       .  A
C385        C386   1.382       .  A
C386        C387   1.418       .  A
C386        N392   1.355       .  A
C387        C388   1.417       .  A
C387        H396   1.082       .  S
C388        C391   1.398       .  A
N389        C390   1.357       .  A
N389        H399   1.045       .  S
C390        C391   1.405       .  A
C391        H397   1.082       .  S
N392        C393   1.363       .  A
N392        H400   1.045   1_545  S
C393        C394   1.397       .  A
C394        H398   1.083       .  S
