geometry optimzed in LAMMPS
_audit_creation_date              2020-12-01 
_audit_creation_method            'lammps2cif' 
_symmetry_space_group_name_H-M    'P1' 
_symmetry_Int_Tables_number       1 
_symmetry_cell_setting            triclinic 
loop_ 
_symmetry_equiv_pos_as_xyz 
  x,y,z 
_cell_length_a                    44.49900525 
_cell_length_b                    48.775042525364796 
_cell_length_c                    65.88766175327723 
_cell_angle_alpha                 90.0448706704003 
_cell_angle_beta                  90.0123655011759 
_cell_angle_gamma                 90.12325916758103 
loop_ 
_atom_site_label 
_atom_site_type_symbol 
_atom_site_fract_x 
_atom_site_fract_y 
_atom_site_fract_z 
_atom_site_charge 
O1          O  0.91039632  0.36406610  0.11356721    -0.57500
C2          C  0.86682151  0.43973743  0.11568871     0.75100
O3          O  0.96143827  0.43314888  0.14042485    -0.58600
C4          C  0.93723531  0.35539065  0.11325360     0.75100
C5          C  0.95013748  0.43219122  0.07824353     0.77500
Cd6        Cd  0.92492561  0.41336768  0.11599917     1.37500
O7          O  0.86935586  0.41385967  0.11545381    -0.57500
O8          O  0.92923361  0.41459250  0.07896172    -0.56300
C9          C  0.94766994  0.42483457  0.15609302     0.77500
O10         O  0.95954973  0.44123845  0.09513199    -0.58700
O11         O  0.89109878  0.45327993  0.11605560    -0.57100
O12         O  0.95763725  0.37340582  0.11434700    -0.57100
O13         O  0.92333593  0.41202006  0.15308232    -0.56300
O14         O  0.55745530  0.60459959  0.11499425    -0.57500
C15         C  0.60666419  0.53252776  0.11808838     0.75100
O16         O  0.51173025  0.53519459  0.14332469    -0.58600
C17         C  0.53019141  0.61162773  0.11308056     0.75100
C18         C  0.52476918  0.53057280  0.08061743     0.77500
Cd19       Cd  0.54673007  0.55479209  0.11780112     1.37500
O20         O  0.60226270  0.55797035  0.11557364    -0.57500
O21         O  0.54363059  0.55000903  0.08088318    -0.56300
C22         C  0.52576879  0.54442288  0.15862391     0.77500
O23         O  0.51571863  0.52208934  0.09775208    -0.58700
O24         O  0.58349447  0.51783448  0.12056141    -0.57100
O25         O  0.51102350  0.59244196  0.11328486    -0.57100
O26         O  0.54930497  0.55812391  0.15494843    -0.56300
O27         O  0.11589515  0.56838250  0.88157661    -0.57500
C28         C  0.04606611  0.62134519  0.88229254     0.75100
O29         O  0.02224868  0.54431437  0.85732892    -0.58600
C30         C  0.12127595  0.54318862  0.87865394     0.75100
C31         C  0.04153280  0.54104519  0.91951810     0.77500
Cd32       Cd  0.06072685  0.56370448  0.88087900     1.37500
O33         O  0.07311368  0.61335980  0.88194095    -0.57500
O34         O  0.06018314  0.56057052  0.91831275    -0.56300
C35         C  0.03657980  0.55012631  0.84126613     0.77500
O36         O  0.03137461  0.53204155  0.90282694    -0.58700
O37         O  0.02622005  0.60275007  0.88228648    -0.57100
O38         O  0.09863923  0.52764804  0.87667293    -0.57100
O39         O  0.06191605  0.56145647  0.84368772    -0.56300
O40         O  0.37978289  0.40950935  0.87823611    -0.57500
C41         C  0.45455945  0.35799428  0.87779559     0.75100
O42         O  0.46577211  0.43662771  0.84671203    -0.58600
C43         C  0.37362301  0.43423731  0.87406206     0.75100
C44         C  0.45698194  0.43923738  0.91029436     0.77500
Cd45       Cd  0.43475936  0.41424851  0.87344648     1.37500
O46         O  0.42684956  0.36396242  0.87807749    -0.57500
O47         O  0.43693428  0.42086052  0.91001170    -0.56300
C48         C  0.45226057  0.42523021  0.83198692     0.77500
O49         O  0.46747141  0.44640244  0.89319885    -0.58700
O50         O  0.47255860  0.37785471  0.87549464    -0.57100
O51         O  0.39562143  0.44944040  0.86935759    -0.57100
O52         O  0.43097751  0.40912174  0.83656018    -0.56300
O53         O  0.05889449  0.36459450  0.38014415    -0.57500
C54         C  0.11113888  0.43315375  0.37565702     0.75100
O55         O  0.01510149  0.43578027  0.35111527    -0.58600
C56         C  0.03146730  0.35762744  0.37957269     0.75100
C57         C  0.02752841  0.43859654  0.41371091     0.77500
Cd58       Cd  0.04947102  0.41435743  0.37636740     1.37500
O59         O  0.10464301  0.40811034  0.37828307    -0.57500
O60         O  0.04542320  0.41849631  0.41348789    -0.56300
C61         C  0.02815187  0.42564033  0.33575455     0.77500
O62         O  0.01958643  0.44775930  0.39654080    -0.58700
O63         O  0.08919720  0.44923493  0.37304543    -0.57100
O64         O  0.01263624  0.37688070  0.37789700    -0.57100
O65         O  0.05099130  0.41102626  0.33930426    -0.56300
O66         O  0.41973324  0.60788203  0.37922083    -0.57500
C67         C  0.36585384  0.53901026  0.37953039     0.75100
O68         O  0.46316591  0.53606939  0.35481474    -0.58600
C69         C  0.44750679  0.61377198  0.37940919     0.75100
C70         C  0.44750256  0.53653307  0.41771633     0.77500
Cd71       Cd  0.42749188  0.55768303  0.37913653     1.37500
O72         O  0.37245067  0.56381321  0.38323649    -0.57500
O73         O  0.43303541  0.55869245  0.41607352    -0.56300
C74         C  0.44942889  0.54436224  0.33910755     0.77500
O75         O  0.45333649  0.52402508  0.40130831    -0.58700
O76         O  0.38762214  0.52330012  0.37542835    -0.57100
O77         O  0.46555540  0.59377608  0.37970738    -0.57100
O78         O  0.42546285  0.55766805  0.34211229    -0.56300
O79         O  0.92834656  0.60776599  0.61785834    -0.57500
C80         C  0.87606937  0.53661054  0.62009362     0.75100
O81         O  0.96776540  0.52448347  0.60000914    -0.58600
C82         C  0.95573997  0.61390258  0.61509016     0.75100
C83         C  0.95682924  0.54670053  0.66103609     0.77500
Cd84       Cd  0.93690171  0.55739702  0.61991365     1.37500
O85         O  0.88159875  0.56183985  0.61729713    -0.57500
O86         O  0.93402090  0.56117700  0.65711708    -0.56300
C87         C  0.95843966  0.53248091  0.58281358     0.77500
O88         O  0.97057469  0.53679042  0.64586468    -0.58700
O89         O  0.89860471  0.52123918  0.62271527    -0.57100
O90         O  0.97393885  0.59403938  0.61444546    -0.57100
O91         O  0.93944754  0.55175012  0.58294957    -0.56300
O92         O  0.61675345  0.40173472  0.61285127    -0.57500
C93         C  0.53864278  0.35245364  0.61227446     0.75100
O94         O  0.53028667  0.43067792  0.64193104    -0.58600
C95         C  0.62291118  0.42689458  0.61558841     0.75100
C96         C  0.54079709  0.43291005  0.57819551     0.77500
Cd97       Cd  0.56144205  0.40801387  0.61546060     1.37500
O98         O  0.56667056  0.35721591  0.61194607    -0.57500
O99         O  0.56053895  0.41430815  0.57869573    -0.56300
C100        C  0.54542701  0.42153942  0.65676386     0.77500
O101        O  0.53018497  0.44037938  0.59518363    -0.58700
O102        O  0.52179306  0.37315814  0.61402415    -0.57100
O103        O  0.60076505  0.44282553  0.61791958    -0.57100
O104        O  0.56753363  0.40640367  0.65235672    -0.56300
O105        O  0.37248437  0.05758075  0.61231859    -0.57500
C106        C  0.44854769  0.11027881  0.61391953     0.75100
O107        O  0.45990383  0.03331301  0.64422834    -0.58600
C108        C  0.36800278  0.03205152  0.61456727     0.75100
C109        C  0.45143663  0.02900373  0.58089279     0.77500
Cd110      Cd  0.42799862  0.05406158  0.61726954     1.37500
O111        O  0.42063731  0.10495481  0.61466999    -0.57500
O112        O  0.43384291  0.04934315  0.58065307    -0.56300
C113        C  0.44440015  0.04261172  0.65882793     0.77500
O114        O  0.45901051  0.02017884  0.59825711    -0.58700
O115        O  0.46602067  0.08988550  0.61464570    -0.57100
O116        O  0.39091550  0.01759688  0.61821755    -0.57100
O117        O  0.42155103  0.05659239  0.65406078    -0.56300
O118        O  0.10331263  0.91437757  0.61420433    -0.57500
C119        C  0.02911230  0.86080681  0.61500485     0.75100
O120        O  0.01572294  0.93991228  0.64359590    -0.58600
C121        C  0.10755746  0.94006821  0.61537084     0.75100
C122        C  0.02590373  0.93938009  0.57950147     0.77500
Cd123      Cd  0.04784787  0.91756430  0.61733869     1.37500
O124        O  0.05673370  0.86710445  0.61610641    -0.57500
O125        O  0.04609156  0.92121597  0.58053874    -0.56300
C126        C  0.03109826  0.93115739  0.65844628     0.77500
O127        O  0.01514920  0.94764171  0.59626256    -0.58700
O128        O  0.01078266  0.88059282  0.61499043    -0.57100
O129        O  0.08437320  0.95474744  0.61754523    -0.57100
O130        O  0.05377417  0.91673375  0.65407569    -0.56300
O131        O  0.90307796  0.11257212  0.38300405    -0.57500
C132        C  0.85591529  0.03829867  0.37961697     0.75100
O133        O  0.95018861  0.04224611  0.35432612    -0.58600
C134        C  0.93023825  0.12019833  0.38133997     0.75100
C135        C  0.93744202  0.04318350  0.41754145     0.77500
Cd136      Cd  0.91479691  0.06287522  0.37907557     1.37500
O137        O  0.85915795  0.06407056  0.37823871    -0.57500
O138        O  0.91839541  0.06231105  0.41617296    -0.56300
C139        C  0.93623598  0.05032209  0.33865353     0.77500
O140        O  0.94682048  0.03323431  0.40091844    -0.58700
O141        O  0.87976931  0.02429852  0.38056424    -0.57100
O142        O  0.94941281  0.10144981  0.37864993    -0.57100
O143        O  0.91215351  0.06341646  0.34175358    -0.56300
O144        O  0.54969289  0.86614837  0.37398381    -0.57500
C145        C  0.59872206  0.94057571  0.37096746     0.75100
O146        O  0.50456786  0.93679984  0.34724319    -0.58600
C147        C  0.52207926  0.85962859  0.37456768     0.75100
C148        C  0.51794033  0.93833457  0.41035755     0.77500
Cd149      Cd  0.53963900  0.91649083  0.37232104     1.37500
O150        O  0.59527249  0.91513936  0.37429568    -0.57500
O151        O  0.53764596  0.91971334  0.40943937    -0.56300
C152        C  0.51840701  0.92756324  0.33186479     0.77500
O153        O  0.50796295  0.94704497  0.39352659    -0.58700
O154        O  0.57501139  0.95437862  0.36831028    -0.57100
O155        O  0.50353517  0.87922253  0.37441709    -0.57100
O156        O  0.54196383  0.91389135  0.33537223    -0.56300
O157        O  0.87345306  0.90869368  0.88309550    -0.57500
C158        C  0.94713358  0.85835881  0.88153547     0.75100
O159        O  0.95694355  0.93536811  0.84884942    -0.58600
C160        C  0.86695482  0.93347002  0.87939932     0.75100
C161        C  0.95358795  0.93994978  0.91248062     0.77500
Cd162      Cd  0.92792978  0.91422746  0.87690800     1.37500
O163        O  0.91956656  0.86473042  0.88235777    -0.57500
O164        O  0.93581942  0.91973689  0.91336281    -0.56300
C165        C  0.94214869  0.92398388  0.83469828     0.77500
O166        O  0.96008099  0.94853676  0.89485527    -0.58700
O167        O  0.96546190  0.87778637  0.87845015    -0.57100
O168        O  0.88861424  0.94902240  0.87464244    -0.57100
O169        O  0.92117684  0.90805009  0.84013125    -0.56300
O170        O  0.55952615  0.10795942  0.87744962    -0.57500
C171        C  0.61361167  0.03904418  0.87898699     0.75100
O172        O  0.52284557  0.02363273  0.89717609    -0.58600
C173        C  0.53170926  0.11352786  0.87756246     0.75100
C174        C  0.53542563  0.04327640  0.83567609     0.77500
Cd175      Cd  0.55218291  0.05738272  0.87672405     1.37500
O176        O  0.60684284  0.06387908  0.88236453    -0.57500
O177        O  0.55937612  0.05601095  0.84000255    -0.56300
C178        C  0.53021281  0.03391537  0.91415286     0.77500
O179        O  0.51888796  0.03643778  0.85051763    -0.58700
O180        O  0.59208743  0.02314145  0.87452577    -0.57100
O181        O  0.51392210  0.09327843  0.87739949    -0.57100
O182        O  0.54707229  0.05479067  0.91353679    -0.56300
O183        O  0.05389753  0.10744788  0.11858536    -0.57500
C184        C  0.10431303  0.03771131  0.11949467     0.75100
O185        O  0.00609739  0.03850542  0.14354165    -0.58600
C186        C  0.02685451  0.11472428  0.11596555     0.75100
C187        C  0.02336551  0.03390696  0.08127691     0.77500
Cd188      Cd  0.04336807  0.05767305  0.11917117     1.37500
O189        O  0.09858853  0.06291678  0.11695906    -0.57500
O190        O  0.03977473  0.05508323  0.08202036    -0.56300
C191        C  0.02021759  0.04585066  0.15935083     0.77500
O192        O  0.01584408  0.02359821  0.09819513    -0.58700
O193        O  0.08193413  0.02205057  0.12205533    -0.57100
O194        O  0.00767963  0.09562472  0.11459693    -0.57100
O195        O  0.04502754  0.05792585  0.15648381    -0.56300
O196        O  0.40479432  0.85710858  0.10878940    -0.57500
C197        C  0.35571546  0.92760130  0.11316042     0.75100
O198        O  0.45189624  0.92800291  0.13657923    -0.58600
C199        C  0.43174548  0.84940234  0.11114691     0.75100
C200        C  0.43910847  0.92736133  0.07421351     0.77500
Cd201      Cd  0.41615648  0.90669618  0.11239931     1.37500
O202        O  0.36096860  0.90225082  0.11105549    -0.57500
O203        O  0.42098397  0.90742775  0.07528803    -0.56300
C204        C  0.43841213  0.91986934  0.15242284     0.77500
O205        O  0.44680987  0.93810066  0.09094515    -0.58700
O206        O  0.37839910  0.94311799  0.11488660    -0.57100
O207        O  0.45099451  0.86813002  0.11398014    -0.57100
O208        O  0.41449098  0.90629158  0.14966262    -0.56300
C209        C  0.13536232  0.02697316  0.11932884    -0.02900
C210        C  0.15978593  0.04436360  0.11524971    -0.05500
C211        C  0.18902461  0.03397968  0.11470332    -0.20600
C212        C  0.19453387  0.00601915  0.11815398     0.25200
C213        C  0.17005330  0.98869043  0.12261601    -0.18100
C214        C  0.14080663  0.99907230  0.12307826    -0.08100
C215        C  0.22614808  0.99616852  0.11745847    -0.18400
C216        C  0.23403633  0.96957543  0.11571762    -0.23200
C217        C  0.26569122  0.95967836  0.11496260     0.27200
C218        C  0.27090461  0.93208037  0.10995389    -0.19900
C219        C  0.30011120  0.92160761  0.10933139    -0.09600
C220        C  0.32481116  0.93857136  0.11365375    -0.10100
C221        C  0.31974789  0.96614613  0.11865694    -0.03100
C222        C  0.29056473  0.97657598  0.11946616    -0.18200
H223        H  0.15629604  0.06597639  0.11236098     0.10900
H224        H  0.20743342  0.04786505  0.11142930     0.11000
H225        H  0.17318457  0.96723648  0.12606055     0.10700
H226        H  0.12242217  0.98521957  0.12645931     0.11800
H227        H  0.24335637  0.01188314  0.11762282     0.11900
H228        H  0.21664885  0.95412650  0.11413504     0.13800
H229        H  0.25227505  0.91850704  0.10651907     0.10300
H230        H  0.30335082  0.90024619  0.10542893     0.12400
H231        H  0.33837937  0.97964670  0.12222410     0.09000
H232        H  0.28794952  0.99772637  0.12393119     0.11700
C233        C  0.45055178  0.93731804  0.05442725    -0.02900
C234        C  0.44158248  0.92440090  0.03633526    -0.05500
C235        C  0.45227468  0.93358682  0.01758581    -0.20600
C236        C  0.47192076  0.95606635  0.01640788     0.25200
C237        C  0.48129804  0.96878475  0.03456825    -0.18100
C238        C  0.47062605  0.95953328  0.05336265    -0.08100
C239        C  0.48232988  0.96519854  0.99600342    -0.18400
C240        C  0.49213418  0.99081621  0.99207775    -0.23200
C241        C  0.50177145  0.00068076  0.97168073     0.27200
C242        C  0.51872484  0.02492424  0.97066011    -0.19900
C243        C  0.52785566  0.03558478  0.95199367    -0.09600
C244        C  0.52005842  0.02237814  0.93378132    -0.10100
C245        C  0.50287062  0.99821570  0.93465582    -0.03100
C246        C  0.49376580  0.98744766  0.95340870    -0.18200
H247        H  0.42625067  0.90712980  0.03664620     0.10900
H248        H  0.44487979  0.92325386  0.00390137     0.11000
H249        H  0.49720897  0.98556583  0.03444353     0.10700
H250        H  0.47818430  0.96970324  0.06706368     0.11800
H251        H  0.48091890  0.95033974  0.98379549     0.11900
H252        H  0.49321492  0.00560677  0.00435687     0.13800
H253        H  0.52504568  0.03567907  0.98441233     0.10300
H254        H  0.54102717  0.05428387  0.95185070     0.12400
H255        H  0.49641232  0.98767127  0.92085377     0.09000
H256        H  0.48004025  0.96914596  0.95337984     0.11700
C257        C  0.96556633  0.95276075  0.93119056    -0.02900
C258        C  0.98064514  0.97807453  0.93063015    -0.05500
C259        C  0.99053272  0.99049065  0.94863570    -0.20600
C260        C  0.98549043  0.97790532  0.96752334     0.25200
C261        C  0.97122444  0.95212406  0.96793655    -0.18100
C262        C  0.96122519  0.93984420  0.95001023    -0.08100
C263        C  0.99610877  0.99177566  0.98637855    -0.18400
C264        C  0.98434099  0.98663261  0.00487852    -0.23200
C265        C  0.99512170  0.99930598  0.02411965     0.27200
C266        C  0.98792444  0.98631878  0.04252188    -0.19900
C267        C  0.99713482  0.99745193  0.06107774    -0.09600
C268        C  0.01363367  0.02198998  0.06165975    -0.10100
C269        C  0.02073921  0.03514204  0.04328405    -0.03100
C270        C  0.01152448  0.02400550  0.02470375    -0.18200
H271        H  0.98438131  0.98846340  0.91632847     0.10900
H272        H  0.00180385  0.01016596  0.94783577     0.11000
H273        H  0.96803117  0.94106779  0.98198468     0.10700
H274        H  0.95009204  0.92011205  0.95090323     0.11800
H275        H  0.01404004  0.00669598  0.98476418     0.11900
H276        H  0.96610399  0.97197722  0.00627410     0.13800
H277        H  0.97521173  0.96734966  0.04254462     0.10300
H278        H  0.99133467  0.98683368  0.07496734     0.12400
H279        H  0.03325131  0.05421211  0.04326247     0.09000
H280        H  0.01685912  0.03512282  0.01098274     0.11700
C281        C  0.83581858  0.94384285  0.88046586    -0.02900
C282        C  0.81223538  0.92684364  0.88699442    -0.05500
C283        C  0.78279205  0.93677694  0.88772265    -0.20600
C284        C  0.77631644  0.96388491  0.88204779     0.25200
C285        C  0.79997638  0.98083046  0.87537168    -0.18100
C286        C  0.82938937  0.97091857  0.87470527    -0.08100
C287        C  0.74452102  0.97322820  0.88233818    -0.18400
C288        C  0.73630086  0.99982977  0.88269696    -0.23200
C289        C  0.70447992  0.00909991  0.88210761     0.27200
C290        C  0.69752160  0.03569826  0.88879576    -0.19900
C291        C  0.66802447  0.04552629  0.88784775    -0.09600
C292        C  0.64487745  0.02891854  0.88012355    -0.10100
C293        C  0.65181440  0.00235823  0.87336299    -0.03100
C294        C  0.68127465  0.99259373  0.87420138    -0.18200
H295        H  0.81651528  0.90586175  0.89148349     0.10900
H296        H  0.76496981  0.92320077  0.89273267     0.11000
H297        H  0.79593898  0.00149840  0.87019047     0.10700
H298        H  0.84709122  0.98442033  0.86940803     0.11800
H299        H  0.72738143  0.95741209  0.88288191     0.11900
H300        H  0.75336575  0.01561367  0.88409435     0.13800
H301        H  0.71499049  0.04893578  0.89478497     0.10300
H302        H  0.66333420  0.06608318  0.89317752     0.12400
H303        H  0.63448411  0.98918367  0.86713071     0.09000
H304        H  0.68572839  0.97237568  0.86820380     0.11700
C305        C  0.45013320  0.92538298  0.17306176    -0.02900
C306        C  0.47835142  0.93780361  0.17583352    -0.05500
C307        C  0.49010622  0.94144562  0.19536080    -0.20600
C308        C  0.47374423  0.93312807  0.21251075     0.25200
C309        C  0.44532591  0.92097510  0.20972899    -0.18100
C310        C  0.43367669  0.91717593  0.19022128    -0.08100
C311        C  0.48779450  0.93548499  0.23291225    -0.18400
C312        C  0.47174556  0.93714013  0.25021538    -0.23200
C313        C  0.48540248  0.93660073  0.27081320     0.27200
C314        C  0.46879764  0.94673529  0.28731399    -0.19900
C315        C  0.47981045  0.94454122  0.30714574    -0.09600
C316        C  0.50755367  0.93185269  0.31088214    -0.10100
C317        C  0.52437543  0.92202755  0.29436627    -0.03100
C318        C  0.51344239  0.92431253  0.27455865    -0.18200
H319        H  0.49161908  0.94420499  0.16289467     0.10900
H320        H  0.51216619  0.95059101  0.19707571     0.11000
H321        H  0.43243440  0.91349362  0.22249858     0.10700
H322        H  0.41196463  0.90735046  0.18856754     0.11800
H323        H  0.51215465  0.93620389  0.23355428     0.11900
H324        H  0.44748626  0.93915602  0.24936367     0.13800
H325        H  0.44702405  0.95606011  0.28487189     0.10300
H326        H  0.46630170  0.95220690  0.31957696     0.12400
H327        H  0.54576773  0.91199524  0.29677696     0.09000
H328        H  0.52655156  0.91549815  0.26238590     0.11700
C329        C  0.94765154  0.04531516  0.31783999    -0.02900
C330        C  0.97537346  0.03225657  0.31476721    -0.05500
C331        C  0.98691058  0.02895393  0.29516067    -0.20600
C332        C  0.97092992  0.03835840  0.27815827     0.25200
C333        C  0.94300036  0.05124575  0.28122390    -0.18100
C334        C  0.93150773  0.05462031  0.30084674    -0.08100
C335        C  0.98509191  0.03607334  0.25773516    -0.18400
C336        C  0.96962168  0.03695498  0.24013697    -0.23200
C337        C  0.98406865  0.03699213  0.21971664     0.27200
C338        C  0.96664393  0.03019914  0.20263868    -0.19900
C339        C  0.97862151  0.03217064  0.18303507    -0.09600
C340        C  0.00824282  0.04131983  0.18007236    -0.10100
C341        C  0.02590247  0.04762059  0.19714212    -0.03100
C342        C  0.01400061  0.04552927  0.21673042    -0.18200
H343        H  0.98841856  0.02499988  0.32754570     0.10900
H344        H  0.00858825  0.01920413  0.29327981     0.11000
H345        H  0.93036185  0.05955559  0.26864669     0.10700
H346        H  0.91019137  0.06499611  0.30273133     0.11800
H347        H  0.00923750  0.03306426  0.25735253     0.11900
H348        H  0.94524449  0.03738950  0.24055049     0.13800
H349        H  0.94348805  0.02374547  0.20445177     0.10300
H350        H  0.96442792  0.02726341  0.17017958     0.12400
H351        H  0.04879310  0.05481528  0.19534592     0.09000
H352        H  0.02803488  0.05167371  0.22933403     0.11700
C353        C  0.82600851  0.02503944  0.38007307    -0.02900
C354        C  0.82359092  0.99650901  0.38253583    -0.05500
C355        C  0.79545899  0.98375647  0.38267787    -0.20600
C356        C  0.76912965  0.99915071  0.38015376     0.25200
C357        C  0.77149118  0.02783443  0.37815042    -0.18100
C358        C  0.79967744  0.04061047  0.37806490    -0.08100
C359        C  0.73980183  0.98449135  0.38005567    -0.18400
C360        C  0.71478513  0.99451659  0.37127199    -0.23200
C361        C  0.68550217  0.97976806  0.37090690     0.27200
C362        C  0.65924067  0.99503310  0.36771695    -0.19900
C363        C  0.63114226  0.98222304  0.36751680    -0.09600
C364        C  0.62867264  0.95376512  0.37040061    -0.10100
C365        C  0.65495525  0.93829171  0.37299936    -0.03100
C366        C  0.68312280  0.95111461  0.37318505    -0.18200
H367        H  0.84348304  0.98396917  0.38429532     0.10900
H368        H  0.79428775  0.96171203  0.38448629     0.11000
H369        H  0.75173785  0.04059248  0.37692410     0.10700
H370        H  0.80085486  0.06266822  0.37639787     0.11800
H371        H  0.73925256  0.96443828  0.38712773     0.11900
H372        H  0.71540100  0.01456712  0.36418838     0.13800
H373        H  0.66042166  0.01703957  0.36565575     0.10300
H374        H  0.61130151  0.99469376  0.36531131     0.12400
H375        H  0.65375029  0.91627493  0.37495329     0.09000
H376        H  0.70282504  0.93840758  0.37487665     0.11700
C377        C  0.02303392  0.93669942  0.67985043    -0.02900
C378        C  0.04279352  0.92886721  0.69542564    -0.05500
C379        C  0.03462272  0.93182768  0.71574831    -0.20600
C380        C  0.00636058  0.94227430  0.72101160     0.25200
C381        C  0.98693580  0.95116779  0.70549063    -0.18100
C382        C  0.99528488  0.94848294  0.68506053    -0.08100
C383        C  0.99808644  0.94321014  0.74282718    -0.18400
C384        C  0.96970546  0.94026313  0.74959097    -0.23200
C385        C  0.96242116  0.93736487  0.77151467     0.27200
C386        C  0.93735569  0.92166484  0.77722907    -0.19900
C387        C  0.93075194  0.91732422  0.79774136    -0.09600
C388        C  0.94887822  0.92894689  0.81298774    -0.10100
C389        C  0.97342491  0.94535428  0.80727830    -0.03100
C390        C  0.98012647  0.94956355  0.78676991    -0.18200
H391        H  0.06446055  0.91997492  0.69191341     0.10900
H392        H  0.05011619  0.92512511  0.72741310     0.11000
H393        H  0.96533469  0.96009151  0.70907963     0.10700
H394        H  0.97975387  0.95496804  0.67336369     0.11800
H395        H  0.01643047  0.94341646  0.75369468     0.11900
H396        H  0.95162734  0.93721093  0.73874051     0.13800
H397        H  0.92322288  0.91222563  0.76578718     0.10300
H398        H  0.91151948  0.90475621  0.80165880     0.12400
H399        H  0.98758323  0.95483437  0.81867413     0.09000
H400        H  0.99906481  0.96250702  0.78294010     0.11700
C401        C  0.01579994  0.95015011  0.55963291    -0.02900
C402        C  0.02798586  0.93942970  0.54164033    -0.05500
C403        C  0.01878685  0.94927792  0.52275354    -0.20600
C404        C  0.99736317  0.97024119  0.52129037     0.25200
C405        C  0.98497826  0.98096258  0.53933889    -0.18100
C406        C  0.99419060  0.97101977  0.55830907    -0.08100
C407        C  0.98824865  0.97954006  0.50063142    -0.18400
C408        C  0.97432820  0.00349480  0.49676914    -0.23200
C409        C  0.96551725  0.01288349  0.47606397     0.27200
C410        C  0.94419665  0.03392751  0.47444681    -0.19900
C411        C  0.93531581  0.04381233  0.45547757    -0.09600
C412        C  0.94764665  0.03295921  0.43756862    -0.10100
C413        C  0.96925480  0.01210901  0.43907565    -0.03100
C414        C  0.97820880  0.00220607  0.45810417    -0.18200
H415        H  0.04465879  0.92330528  0.54212216     0.10900
H416        H  0.02860798  0.94050796  0.50917706     0.11000
H417        H  0.96782707  0.99659299  0.53900121     0.10700
H418        H  0.98430682  0.97958102  0.57192896     0.11800
H419        H  0.99375712  0.96598324  0.48813140     0.11900
H420        H  0.96876599  0.01703491  0.50926704     0.13800
H421        H  0.93418094  0.04269606  0.48795829     0.10300
H422        H  0.91862301  0.05991065  0.45485328     0.12400
H423        H  0.97930753  0.00347995  0.42553644     0.09000
H424        H  0.99537006  0.98658789  0.45854806     0.11700
C425        C  0.52735694  0.03726742  0.81433530    -0.02900
C426        C  0.54877204  0.04098872  0.79891615    -0.05500
C427        C  0.54107580  0.03699502  0.77857819    -0.20600
C428        C  0.51168574  0.02962770  0.77311167     0.25200
C429        C  0.49040599  0.02500302  0.78859344    -0.18100
C430        C  0.49821010  0.02878076  0.80902022    -0.08100
C431        C  0.50424233  0.02741811  0.75113685    -0.18400
C432        C  0.47636858  0.03153375  0.74375033    -0.23200
C433        C  0.46878019  0.03267080  0.72171421     0.27200
C434        C  0.44085107  0.04369993  0.71617963    -0.19900
C435        C  0.43284850  0.04642048  0.69579588    -0.09600
C436        C  0.45251827  0.03800868  0.68035370    -0.10100
C437        C  0.48013813  0.02617358  0.68576071    -0.03100
C438        C  0.48823350  0.02349117  0.70623474    -0.18200
H439        H  0.57150246  0.04728604  0.80255378     0.10900
H440        H  0.55797968  0.04039867  0.76702383     0.11000
H441        H  0.46777180  0.01842196  0.78504925     0.10700
H442        H  0.48131749  0.02557197  0.82060505     0.11800
H443        H  0.52290151  0.02475151  0.74077868     0.11900
H444        H  0.45839093  0.03631007  0.75427768     0.13800
H445        H  0.42528754  0.05072635  0.72768827     0.10300
H446        H  0.41129924  0.05543707  0.69213341     0.12400
H447        H  0.49567283  0.01935739  0.67416791     0.09000
H448        H  0.50963308  0.01419055  0.70970390     0.11700
C449        C  0.46213806  0.01639348  0.56176622    -0.02900
C450        C  0.48038486  0.99292630  0.56183338    -0.05500
C451        C  0.48981778  0.98111172  0.54350896    -0.20600
C452        C  0.48105934  0.99238383  0.52477798     0.25200
C453        C  0.46321591  0.01617592  0.52482243    -0.18100
C454        C  0.45375663  0.02787303  0.54306851    -0.08100
C455        C  0.49168753  0.97933874  0.50560626    -0.18400
C456        C  0.47830054  0.98316474  0.48741629    -0.23200
C457        C  0.48885602  0.97093513  0.46794642     0.27200
C458        C  0.47796491  0.98190851  0.44964355    -0.19900
C459        C  0.48716932  0.97126388  0.43092599    -0.09600
C460        C  0.50745806  0.94930018  0.43009103    -0.10100
C461        C  0.51798855  0.93796383  0.44835958    -0.03100
C462        C  0.50875469  0.94856108  0.46707745    -0.18200
H463        H  0.48726323  0.98364771  0.57602182     0.10900
H464        H  0.50381380  0.96298503  0.54396116     0.11000
H465        H  0.45685362  0.02628273  0.51088728     0.10700
H466        H  0.43994537  0.04610622  0.54250118     0.11800
H467        H  0.51112325  0.96608822  0.50677287     0.11900
H468        H  0.45862441  0.99615580  0.48645347     0.13800
H469        H  0.46243784  0.99897860  0.44981280     0.10300
H470        H  0.47856982  0.98036848  0.41711407     0.12400
H471        H  0.53339459  0.92081644  0.44820569     0.09000
H472        H  0.51704501  0.93883305  0.48069104     0.11700
C473        C  0.13781135  0.95258290  0.61433155    -0.02900
C474        C  0.14114500  0.98107358  0.61644611    -0.05500
C475        C  0.16957972  0.99315164  0.61594232    -0.20600
C476        C  0.19544209  0.97715462  0.61324055     0.25200
C477        C  0.19208111  0.94853950  0.61088091    -0.18100
C478        C  0.16352268  0.93643859  0.61140662    -0.08100
C479        C  0.22512357  0.99135699  0.61365591    -0.18400
C480        C  0.25153122  0.97941742  0.60913250    -0.23200
C481        C  0.28087722  0.99390022  0.61046246     0.27200
C482        C  0.30681714  0.97820096  0.61351044    -0.19900
C483        C  0.33494408  0.99072704  0.61487428    -0.09600
C484        C  0.33788866  0.01930779  0.61303230    -0.10100
C485        C  0.31203909  0.03512371  0.60963614    -0.03100
C486        C  0.28375563  0.02255089  0.60833621    -0.18200
H487        H  0.12174326  0.99410186  0.61867366     0.10900
H488        H  0.17136051  0.01517046  0.61780104     0.11000
H489        H  0.21117653  0.93517347  0.60899360     0.10700
H490        H  0.16159510  0.91441883  0.60970608     0.11800
H491        H  0.22507029  0.01271486  0.61830730     0.11900
H492        H  0.25227007  0.95793680  0.60498417     0.13800
H493        H  0.30529176  0.95612679  0.61503456     0.10300
H494        H  0.35446224  0.97792566  0.61736867     0.12400
H495        H  0.31368737  0.05715594  0.60793988     0.09000
H496        H  0.26440883  0.03529361  0.60530646     0.11700
C497        C  0.46066280  0.13857454  0.61237659    -0.02900
C498        C  0.49177881  0.14256935  0.61027249    -0.05500
C499        C  0.50395576  0.16893622  0.60945618    -0.20600
C500        C  0.48546799  0.19213219  0.61064521     0.25200
C501        C  0.45414984  0.18823517  0.61259115    -0.18100
C502        C  0.44190132  0.16168557  0.61338991    -0.08100
C503        C  0.50024184  0.21964301  0.61085618    -0.18400
C504        C  0.48595033  0.24350573  0.60729911    -0.23200
C505        C  0.50068032  0.27103425  0.60836395     0.27200
C506        C  0.48221723  0.29424311  0.60981699    -0.19900
C507        C  0.49460842  0.32053843  0.61106702    -0.09600
C508        C  0.52590690  0.32439296  0.61076699    -0.10100
C509        C  0.54454649  0.30130498  0.60903085    -0.03100
C510        C  0.53212622  0.27489605  0.60778139    -0.18200
H511        H  0.50689138  0.12523794  0.60941395     0.10900
H512        H  0.52809519  0.17120282  0.60802165     0.11000
H513        H  0.43904008  0.20544048  0.61405735     0.10700
H514        H  0.41783944  0.15924872  0.61514054     0.11800
H515        H  0.52407307  0.21991384  0.61424207     0.11900
H516        H  0.46211421  0.24319265  0.60388345     0.13800
H517        H  0.45798475  0.29202533  0.61017392     0.10300
H518        H  0.47958898  0.33789220  0.61231309     0.12400
H519        H  0.56875308  0.30365195  0.60859395     0.09000
H520        H  0.54732753  0.25781618  0.60609168     0.11700
C521        C  0.01846205  0.83203305  0.61381166    -0.02900
C522        C  0.98761942  0.82645300  0.61190491    -0.05500
C523        C  0.97715025  0.79947340  0.61093231    -0.20600
C524        C  0.99713170  0.77726162  0.61184198     0.25200
C525        C  0.02814855  0.78285573  0.61380184    -0.18100
C526        C  0.03864043  0.80996455  0.61470408    -0.08100
C527        C  0.98417040  0.74896936  0.61130150    -0.18400
C528        C  0.00044694  0.72569412  0.61024224    -0.23200
C529        C  0.98743320  0.69740481  0.61060797     0.27200
C530        C  0.00691615  0.67520114  0.60738063    -0.19900
C531        C  0.99650852  0.64819230  0.60855555    -0.09600
C532        C  0.96622646  0.64262183  0.61295966    -0.10100
C533        C  0.94647773  0.66469038  0.61585031    -0.03100
C534        C  0.95691117  0.69178178  0.61478570    -0.18200
H535        H  0.97145146  0.84298770  0.61119882     0.10900
H536        H  0.95318604  0.79596678  0.60953133     0.11000
H537        H  0.04453211  0.76664025  0.61492840     0.10700
H538        H  0.06254258  0.81364428  0.61627008     0.11800
H539        H  0.95989720  0.74764594  0.61164387     0.11900
H540        H  0.02465768  0.72703787  0.60896368     0.13800
H541        H  0.03048747  0.67873249  0.60415815     0.10300
H542        H  0.01230413  0.63163912  0.60619829     0.12400
H543        H  0.92302224  0.66101693  0.61933096     0.09000
H544        H  0.94093960  0.70792361  0.61768924     0.11700
C545        C  0.84504462  0.52555619  0.62025542    -0.02900
C546        C  0.82029546  0.54303821  0.61789651    -0.05500
C547        C  0.79105896  0.53245307  0.61772104    -0.20600
C548        C  0.78576973  0.50416045  0.61985121     0.25200
C549        C  0.81066754  0.48669780  0.62256164    -0.18100
C550        C  0.83990788  0.49732097  0.62271308    -0.08100
C551        C  0.75401108  0.49418367  0.61908011    -0.18400
C552        C  0.74557466  0.46754925  0.61950044    -0.23200
C553        C  0.71373147  0.45790447  0.61834040     0.27200
C554        C  0.70817627  0.42989671  0.61481095    -0.19900
C555        C  0.67875695  0.41973173  0.61376119    -0.09600
C556        C  0.65416554  0.43738194  0.61627361    -0.10100
C557        C  0.65961828  0.46534269  0.61990198    -0.03100
C558        C  0.68896757  0.47549285  0.62103335    -0.18200
H559        H  0.82351085  0.56491036  0.61609368     0.10900
H560        H  0.77245546  0.54649662  0.61575932     0.11000
H561        H  0.80807068  0.46488547  0.62459443     0.10700
H562        H  0.85855876  0.48333742  0.62469012     0.11800
H563        H  0.73699252  0.50986232  0.61748546     0.11900
H564        H  0.76251201  0.45170084  0.62015774     0.13800
H565        H  0.72670248  0.41577846  0.61282723     0.10300
H566        H  0.67527776  0.39805278  0.61104987     0.12400
H567        H  0.64112723  0.47943887  0.62209090     0.09000
H568        H  0.69180892  0.49701990  0.62436961     0.11700
C569        C  0.45852704  0.64237861  0.37920084    -0.02900
C570        C  0.48950625  0.64779998  0.37835391    -0.05500
C571        C  0.50013756  0.67474543  0.37809907    -0.20600
C572        C  0.48014880  0.69694934  0.37862953     0.25200
C573        C  0.44903443  0.69149506  0.37961799    -0.18100
C574        C  0.43839394  0.66447257  0.37981608    -0.08100
C575        C  0.49299735  0.72518392  0.37873136    -0.18400
C576        C  0.47701609  0.74804537  0.37496202    -0.23200
C577        C  0.48989789  0.77624581  0.37527873     0.27200
C578        C  0.46999204  0.79838389  0.37688428    -0.19900
C579        C  0.48061169  0.82531026  0.37688205    -0.09600
C580        C  0.51150243  0.83084986  0.37517855    -0.10100
C581        C  0.53159554  0.80880457  0.37351452    -0.03100
C582        C  0.52093259  0.78173860  0.37347231    -0.18200
H583        H  0.50560459  0.63119195  0.37786810     0.10900
H584        H  0.52417601  0.67825156  0.37744305     0.11000
H585        H  0.43271553  0.70779955  0.38062013     0.10700
H586        H  0.41439130  0.66087584  0.38060759     0.11800
H587        H  0.51678701  0.72692260  0.38204618     0.11900
H588        H  0.45320155  0.74642467  0.37172018     0.13800
H589        H  0.44601142  0.79484456  0.37817238     0.10300
H590        H  0.46451464  0.84184022  0.37812316     0.12400
H591        H  0.55549963  0.81248629  0.37195169     0.09000
H592        H  0.53706948  0.76542119  0.37157834     0.11700
C593        C  0.53089682  0.44497198  0.55869122    -0.02900
C594        C  0.54466709  0.43678357  0.54050498    -0.05500
C595        C  0.53545637  0.44771050  0.52195758    -0.20600
C596        C  0.51219158  0.46705589  0.52100620     0.25200
C597        C  0.49839410  0.47538565  0.53928728    -0.18100
C598        C  0.50772544  0.46444276  0.55791523    -0.08100
C599        C  0.50351395  0.47765500  0.50059624    -0.18400
C600        C  0.48092059  0.49536798  0.49702227    -0.23200
C601        C  0.47316591  0.50548219  0.47637606     0.27200
C602        C  0.45810312  0.53059735  0.47457160    -0.19900
C603        C  0.45005872  0.54077456  0.45551657    -0.09600
C604        C  0.45669879  0.52590659  0.43779872    -0.10100
C605        C  0.47150460  0.50063638  0.43954615    -0.03100
C606        C  0.47956813  0.49044133  0.45862751    -0.18200
H607        H  0.56263742  0.42185156  0.54057398     0.10900
H608        H  0.54658012  0.44087950  0.50822921     0.11000
H609        H  0.48050231  0.49027411  0.53951507     0.10700
H610        H  0.49671441  0.47114801  0.57170882     0.11800
H611        H  0.51692874  0.47063166  0.48787557     0.11900
H612        H  0.46802827  0.50367472  0.50951023     0.13800
H613        H  0.45265991  0.54248436  0.48797500     0.10300
H614        H  0.43851682  0.56026075  0.45467657     0.12400
H615        H  0.47657157  0.48858097  0.42616924     0.09000
H616        H  0.49018347  0.47055045  0.45935889     0.11700
C617        C  0.93956768  0.14928893  0.38248155    -0.02900
C618        C  0.91870245  0.17025073  0.38619456    -0.05500
C619        C  0.92817110  0.19763038  0.38728758    -0.20600
C620        C  0.95859508  0.20462893  0.38458758     0.25200
C621        C  0.97945045  0.18345553  0.38116440    -0.18100
C622        C  0.96999052  0.15621709  0.38003122    -0.08100
C623        C  0.96757500  0.23405621  0.38576572    -0.18400
C624        C  0.99436890  0.24382568  0.37939913    -0.23200
C625        C  0.00311034  0.27320860  0.38040819     0.27200
C626        C  0.03379864  0.27999731  0.38065920    -0.19900
C627        C  0.04308588  0.30740424  0.38080841    -0.09600
C628        C  0.02181367  0.32861683  0.38045406    -0.10100
C629        C  0.99109849  0.32186578  0.38020049    -0.03100
C630        C  0.98180622  0.29447219  0.38013895    -0.18200
H631        H  0.89511575  0.16550047  0.38827064     0.10900
H632        H  0.91162310  0.21342860  0.39013088     0.11000
H633        H  0.00321182  0.18745815  0.37964385     0.10700
H634        H  0.98667044  0.14049785  0.37733251     0.11800
H635        H  0.95121439  0.24815526  0.39205799     0.11900
H636        H  0.01106942  0.23000668  0.37326804     0.13800
H637        H  0.05066656  0.26401253  0.38069900     0.10300
H638        H  0.06691298  0.31197527  0.38090476     0.12400
H639        H  0.97418725  0.33778571  0.37974308     0.09000
H640        H  0.95799619  0.29015632  0.37928614     0.11700
C641        C  0.96892067  0.52010106  0.56352807    -0.02900
C642        C  0.98798158  0.49719346  0.56352318    -0.05500
C643        C  0.99741061  0.48545531  0.54519990    -0.20600
C644        C  0.98791383  0.49623577  0.52649336     0.25200
C645        C  0.96924568  0.51950996  0.52653858    -0.18100
C646        C  0.95977870  0.53117900  0.54484030    -0.08100
C647        C  0.99872938  0.48313137  0.50740206    -0.18400
C648        C  0.98521924  0.48618038  0.48919182    -0.23200
C649        C  0.99642968  0.47344798  0.47009159     0.27200
C650        C  0.98836259  0.48527941  0.45143653    -0.19900
C651        C  0.99842749  0.47404647  0.43310295    -0.09600
C652        C  0.01662439  0.45055800  0.43303228    -0.10100
C653        C  0.02430918  0.43842589  0.45166564    -0.03100
C654        C  0.01424760  0.44963754  0.46998745    -0.18200
H655        H  0.99549367  0.48825267  0.57767761     0.10900
H656        H  0.01202259  0.46773225  0.54564469     0.11000
H657        H  0.96223312  0.52917103  0.51256964     0.10700
H658        H  0.94538672  0.54904401  0.54434000     0.11800
H659        H  0.01858575  0.47038391  0.50859512     0.11900
H660        H  0.96540350  0.49894463  0.48791165     0.13800
H661        H  0.97444498  0.50346580  0.45105281     0.10300
H662        H  0.99204052  0.48380373  0.41899227     0.12400
H663        H  0.03799989  0.42010512  0.45209730     0.09000
H664        H  0.02010738  0.43927426  0.48393155     0.11700
C665        C  0.33453254  0.52869583  0.38001792    -0.02900
C666        C  0.31083575  0.54550572  0.38652691    -0.05500
C667        C  0.28135328  0.53542047  0.38705400    -0.20600
C668        C  0.27485172  0.50835404  0.38108844     0.25200
C669        C  0.29868104  0.49164013  0.37441440    -0.18100
C670        C  0.32812313  0.50167318  0.37402083    -0.08100
C671        C  0.24289811  0.49893995  0.38121719    -0.18400
C672        C  0.23423096  0.47250699  0.37921572    -0.23200
C673        C  0.20229694  0.46318950  0.37829600     0.27200
C674        C  0.19605614  0.43508736  0.38055901    -0.19900
C675        C  0.16654599  0.42521775  0.37945089    -0.09600
C676        C  0.14254423  0.44326524  0.37599928    -0.10100
C677        C  0.14873005  0.47129430  0.37338603    -0.03100
C678        C  0.17822358  0.48117078  0.37444883    -0.18200
H679        H  0.31507724  0.56643068  0.39125212     0.10900
H680        H  0.26351741  0.54887723  0.39210828     0.11000
H681        H  0.29492202  0.47098518  0.36907361     0.10700
H682        H  0.34589302  0.48827446  0.36879011     0.11800
H683        H  0.22601455  0.51464578  0.38339626     0.11900
H684        H  0.25110952  0.45655941  0.37861835     0.13800
H685        H  0.21410035  0.42067832  0.38329284     0.10300
H686        H  0.16251304  0.40348130  0.38144786     0.12400
H687        H  0.13071265  0.48568209  0.37054103     0.09000
H688        H  0.18185023  0.50280332  0.37192666     0.11700
C689        C  0.46562619  0.32948856  0.87986226    -0.02900
C690        C  0.49651104  0.32401689  0.87816078    -0.05500
C691        C  0.50727235  0.29721576  0.87956153    -0.20600
C692        C  0.48747769  0.27517637  0.88250270     0.25200
C693        C  0.45656220  0.28061792  0.88471718    -0.18100
C694        C  0.44576383  0.30754780  0.88337486    -0.08100
C695        C  0.50020630  0.24704080  0.88342172    -0.18400
C696        C  0.48470172  0.22433241  0.87825046    -0.23200
C697        C  0.49778848  0.19624040  0.87827127     0.27200
C698        C  0.47813930  0.17372047  0.87877934    -0.19900
C699        C  0.48922161  0.14694416  0.87863023    -0.09600
C700        C  0.52029690  0.14201336  0.87782377    -0.10100
C701        C  0.54006577  0.16446197  0.87704409    -0.03100
C702        C  0.52896804  0.19130954  0.87717353    -0.18200
H703        H  0.51242854  0.34046292  0.87556454     0.10900
H704        H  0.53118543  0.29363601  0.87799703     0.11000
H705        H  0.44071689  0.26426711  0.88769545     0.10700
H706        H  0.42188961  0.31118995  0.88503879     0.11800
H707        H  0.52360071  0.24536036  0.88782876     0.11900
H708        H  0.46130843  0.22619568  0.87381342     0.13800
H709        H  0.45406073  0.17685172  0.87941534     0.10300
H710        H  0.47338270  0.13006872  0.87914291     0.12400
H711        H  0.56411089  0.16127829  0.87616767     0.09000
H712        H  0.54493652  0.20796003  0.87601942     0.11700
C713        C  0.46075073  0.43012467  0.81054545    -0.02900
C714        C  0.44255587  0.41988759  0.79483352    -0.05500
C715        C  0.45070690  0.42358261  0.77455153    -0.20600
C716        C  0.47746649  0.43716142  0.76945327     0.25200
C717        C  0.49547410  0.44796088  0.78513447    -0.18100
C718        C  0.48711291  0.44452230  0.80550051    -0.08100
C719        C  0.48574978  0.43923897  0.74764481    -0.18400
C720        C  0.51436824  0.44004144  0.74102588    -0.23200
C721        C  0.52244072  0.43722418  0.71921654     0.27200
C722        C  0.54963427  0.42445390  0.71414931    -0.19900
C723        C  0.55714417  0.41959958  0.69386919    -0.09600
C724        C  0.53781548  0.42784060  0.67814773    -0.10100
C725        C  0.51111915  0.44160959  0.68313976    -0.03100
C726        C  0.50346071  0.44625061  0.70347981    -0.18200
H727        H  0.42200560  0.40886797  0.79820863     0.10900
H728        H  0.43634647  0.41522505  0.76278246     0.11000
H729        H  0.51587129  0.45916250  0.78173926     0.10700
H730        H  0.50145827  0.45280945  0.81729295     0.11800
H731        H  0.46771623  0.43695406  0.73666313     0.11900
H732        H  0.53257583  0.43958239  0.75199457     0.13800
H733        H  0.56475033  0.41749206  0.72595548     0.10300
H734        H  0.57800692  0.40914523  0.69051256     0.12400
H735        H  0.49593747  0.44843289  0.67133843     0.09000
H736        H  0.48272643  0.45688407  0.70681468     0.11700
C737        C  0.95754222  0.82981450  0.88396155    -0.02900
C738        C  0.93698560  0.80847973  0.88748381    -0.05500
C739        C  0.94701327  0.78146549  0.88938194    -0.20600
C740        C  0.97770382  0.77517133  0.88768024     0.25200
C741        C  0.99834035  0.79668376  0.88461530    -0.18100
C742        C  0.98830656  0.82367299  0.88271949    -0.08100
C743        C  0.98700698  0.74599948  0.88925405    -0.18400
C744        C  0.01349512  0.73619668  0.88248184    -0.23200
C745        C  0.02138900  0.70661983  0.88290885     0.27200
C746        C  0.05179961  0.69897057  0.88256952    -0.19900
C747        C  0.05998687  0.67127301  0.88248681    -0.09600
C748        C  0.03784079  0.65069930  0.88257419    -0.10100
C749        C  0.00744674  0.65835715  0.88260360    -0.03100
C750        C  0.99928093  0.68595731  0.88268118    -0.18200
H751        H  0.91315394  0.81262894  0.88865119     0.10900
H752        H  0.93064348  0.76534209  0.89191456     0.11000
H753        H  0.02224368  0.79301338  0.88387685     0.10700
H754        H  0.00470869  0.83976766  0.88024789     0.11800
H755        H  0.97074107  0.73194970  0.89579382     0.11900
H756        H  0.03015740  0.75003326  0.87619658     0.13800
H757        H  0.06926776  0.71448092  0.88244788     0.10300
H758        H  0.08360925  0.66596974  0.88229626     0.12400
H759        H  0.98986692  0.64297073  0.88237881     0.09000
H760        H  0.97561649  0.69087576  0.88206838     0.11700
C761        C  0.96699553  0.54210886  0.68219511    -0.02900
C762        C  0.99424874  0.52870697  0.68616258    -0.05500
C763        C  0.00472352  0.52595211  0.70608525    -0.20600
C764        C  0.98811520  0.53624683  0.72254094     0.25200
C765        C  0.96046102  0.54919669  0.71858686    -0.18100
C766        C  0.95004844  0.55204549  0.69863679    -0.08100
C767        C  0.00155569  0.53485334  0.74325854    -0.18400
C768        C  0.98589431  0.53793533  0.76065307    -0.23200
C769        C  0.00013848  0.53884696  0.78115225     0.27200
C770        C  0.98234428  0.53382804  0.79838785    -0.19900
C771        C  0.99434723  0.53655735  0.81795856    -0.09600
C772        C  0.02436068  0.54473455  0.82070687    -0.10100
C773        C  0.04232838  0.54929373  0.80349616    -0.03100
C774        C  0.03040710  0.54644716  0.78396552    -0.18200
H775        H  0.00783544  0.52086803  0.67382898     0.10900
H776        H  0.02615886  0.51604808  0.70862966     0.11000
H777        H  0.94723724  0.55803236  0.73068837     0.10700
H778        H  0.92896040  0.56252909  0.69606065     0.11800
H779        H  0.02547772  0.53076284  0.74406693     0.11900
H780        H  0.96160405  0.53955088  0.76004908     0.13800
H781        H  0.95893137  0.52814272  0.79670705     0.10300
H782        H  0.97991108  0.53300115  0.83092626     0.12400
H783        H  0.06552009  0.55571413  0.80511256     0.09000
H784        H  0.04475845  0.55127830  0.77122050     0.11700
C785        C  0.15228691  0.53239729  0.87775912    -0.02900
C786        C  0.17697379  0.54969398  0.88135530    -0.05500
C787        C  0.20623633  0.53932188  0.88089340    -0.20600
C788        C  0.21154995  0.51146271  0.87684640     0.25200
C789        C  0.18675309  0.49422614  0.87292399    -0.18100
C790        C  0.15748086  0.50459572  0.87347583    -0.08100
C791        C  0.24325039  0.50163797  0.87625810    -0.18400
C792        C  0.25130619  0.47499894  0.87683360    -0.23200
C793        C  0.28306143  0.46541817  0.87618786     0.27200
C794        C  0.28968709  0.43896967  0.88329113    -0.19900
C795        C  0.31904952  0.42882459  0.88260972    -0.09600
C796        C  0.34249382  0.44490449  0.87471971    -0.10100
C797        C  0.33593940  0.47133443  0.86750312    -0.03100
C798        C  0.30654220  0.48145110  0.86809835    -0.18200
H799        H  0.17368443  0.57123754  0.88464057     0.10900
H800        H  0.22483607  0.55315279  0.88379424     0.11000
H801        H  0.18963433  0.47285286  0.86910858     0.10700
H802        H  0.13888153  0.49081930  0.87045323     0.11800
H803        H  0.26063591  0.51726085  0.87608890     0.11900
H804        H  0.23420709  0.45934610  0.87871822     0.13800
H805        H  0.27205358  0.42609480  0.88946884     0.10300
H806        H  0.32340713  0.40840458  0.88831878     0.12400
H807        H  0.35351599  0.48412532  0.86116981     0.09000
H808        H  0.30236299  0.50156300  0.86184086     0.11700
C809        C  0.52096563  0.64060978  0.11089804    -0.02900
C810        C  0.54226538  0.66186235  0.11156994    -0.05500
C811        C  0.53317282  0.68923801  0.11010553    -0.20600
C812        C  0.50263445  0.69599422  0.10803009     0.25200
C813        C  0.48140640  0.67459428  0.10683958    -0.18100
C814        C  0.49050014  0.64726697  0.10834922    -0.08100
C815        C  0.49411484  0.72549008  0.10705101    -0.18400
C816        C  0.46598756  0.73491688  0.11015112    -0.23200
C817        C  0.45798079  0.76450441  0.10996951     0.27200
C818        C  0.42799359  0.77199129  0.10630451    -0.19900
C819        C  0.41934652  0.79956023  0.10658210    -0.09600
C820        C  0.44054789  0.82019533  0.11068461    -0.10100
C821        C  0.47047842  0.81272023  0.11453481    -0.03100
C822        C  0.47911539  0.78521124  0.11426452    -0.18200
H823        H  0.56592942  0.65735720  0.11341548     0.10900
H824        H  0.55006178  0.70523626  0.11087353     0.11000
H825        H  0.45779055  0.67859939  0.10454313     0.10700
H826        H  0.47358375  0.63130530  0.10754069     0.11800
H827        H  0.51209383  0.73996895  0.10402073     0.11900
H828        H  0.44776915  0.72065913  0.11297266     0.13800
H829        H  0.41120353  0.75643932  0.10316313     0.10300
H830        H  0.39609351  0.80470631  0.10362382     0.12400
H831        H  0.48726025  0.82815746  0.11797097     0.09000
H832        H  0.50217986  0.78035219  0.11791127     0.11700
C833        C  0.46084625  0.53958161  0.31829441    -0.02900
C834        C  0.48966401  0.52876458  0.31497690    -0.05500
C835        C  0.50103825  0.52637380  0.29522840    -0.20600
C836        C  0.48372077  0.53435996  0.27841557     0.25200
C837        C  0.45472413  0.54487594  0.28177125    -0.18100
C838        C  0.44345744  0.54740573  0.30147109    -0.08100
C839        C  0.49726895  0.53335809  0.25778522    -0.18400
C840        C  0.48085549  0.53195395  0.24060613    -0.23200
C841        C  0.49399842  0.53355143  0.21987640     0.27200
C842        C  0.47726574  0.52353010  0.20337116    -0.19900
C843        C  0.48782097  0.52649271  0.18348142    -0.09600
C844        C  0.51523120  0.53984756  0.17967101    -0.10100
C845        C  0.53216042  0.54962861  0.19617936    -0.03100
C846        C  0.52167865  0.54657865  0.21605693    -0.18200
H847        H  0.50367819  0.52277802  0.32764956     0.10900
H848        H  0.52356257  0.51849898  0.29308112     0.11000
H849        H  0.44101929  0.55209863  0.26933261     0.10700
H850        H  0.42126281  0.55604307  0.30354241     0.11800
H851        H  0.52161910  0.53340389  0.25685494     0.11900
H852        H  0.45669078  0.52919585  0.24163961     0.13800
H853        H  0.45576994  0.51362234  0.20586326     0.10300
H854        H  0.47425810  0.51878271  0.17107193     0.12400
H855        H  0.55332139  0.56012164  0.19372036     0.09000
H856        H  0.53486351  0.55531072  0.22824618     0.11700
C857        C  0.51407054  0.51862822  0.06124236    -0.02900
C858        C  0.49410995  0.49629247  0.06101346    -0.05500
C859        C  0.48420297  0.48521213  0.04256789    -0.20600
C860        C  0.49417077  0.49606688  0.02398277     0.25200
C861        C  0.51385985  0.51868000  0.02426709    -0.18100
C862        C  0.52376895  0.52970814  0.04267787    -0.08100
C863        C  0.48275067  0.48384024  0.00473750    -0.18400
C864        C  0.49689505  0.48628793  0.98667370    -0.23200
C865        C  0.48586287  0.47407952  0.96726447     0.27200
C866        C  0.49941779  0.48229299  0.94894485    -0.19900
C867        C  0.49014317  0.47115833  0.93034990    -0.09600
C868        C  0.46715962  0.45142432  0.92971104    -0.10100
C869        C  0.45369124  0.44311165  0.94798613    -0.03100
C870        C  0.46291629  0.45418196  0.96652080    -0.18200
H871        H  0.48616405  0.48737316  0.07507596     0.10900
H872        H  0.46881616  0.46797365  0.04281698     0.11000
H873        H  0.52127772  0.52836309  0.01038955     0.10700
H874        H  0.53890186  0.54711902  0.04235527     0.11800
H875        H  0.46212030  0.47214160  0.00585686     0.11900
H876        H  0.51778578  0.49771346  0.98587071     0.13800
H877        H  0.51725298  0.49744539  0.94900824     0.10300
H878        H  0.50099405  0.47792437  0.91651700     0.12400
H879        H  0.43598964  0.42783533  0.94801150     0.09000
H880        H  0.45218993  0.44657219  0.98008647     0.11700
C881        C  0.01801558  0.14391610  0.11484225    -0.02900
C882        C  0.03965447  0.16470432  0.11691378    -0.05500
C883        C  0.03115063  0.19226354  0.11666101    -0.20600
C884        C  0.00091076  0.19972119  0.11416354     0.25200
C885        C  0.97920192  0.17888179  0.11198093    -0.18100
C886        C  0.98772491  0.15128055  0.11227872    -0.08100
C887        C  0.99309262  0.22933738  0.11489826    -0.18400
C888        C  0.96741097  0.24008241  0.10751214    -0.23200
C889        C  0.96015893  0.26981873  0.10877563     0.27200
C890        C  0.92994192  0.27809506  0.10812930    -0.19900
C891        C  0.92228178  0.30586982  0.10965834    -0.09600
C892        C  0.94478342  0.32593211  0.11164290    -0.10100
C893        C  0.97501391  0.31770222  0.11184120    -0.03100
C894        C  0.98265179  0.29003953  0.11032512    -0.18200
H895        H  0.06315127  0.15967966  0.11896506     0.10900
H896        H  0.04831183  0.20786172  0.11849619     0.11000
H897        H  0.95557948  0.18361770  0.11058944     0.10700
H898        H  0.97050507  0.13567940  0.11079709     0.11800
H899        H  0.00953174  0.24275808  0.12193633     0.11900
H900        H  0.95067571  0.22678523  0.10067290     0.13800
H901        H  0.91218865  0.26298591  0.10669696     0.10300
H902        H  0.89879739  0.31162843  0.10929249     0.12400
H903        H  0.99290077  0.33270138  0.11309125     0.09000
H904        H  0.00623383  0.28477539  0.11005107     0.11700
C905        C  0.95953639  0.42908909  0.17682325    -0.02900
C906        C  0.98859519  0.43958748  0.17992079    -0.05500
C907        C  0.00051857  0.44142830  0.19953480    -0.20600
C908        C  0.98346713  0.43330198  0.21642803     0.25200
C909        C  0.95418997  0.42321269  0.21332767    -0.18100
C910        C  0.94238280  0.42115674  0.19373721    -0.08100
C911        C  0.99746005  0.43386501  0.23689137    -0.18400
C912        C  0.98148311  0.43667822  0.25413847    -0.23200
C913        C  0.99504673  0.43533584  0.27473689     0.27200
C914        C  0.97992327  0.44755136  0.29111544    -0.19900
C915        C  0.99097166  0.44505696  0.31093241    -0.09600
C916        C  0.01724687  0.43001097  0.31476822    -0.10100
C917        C  0.03255249  0.41804756  0.29835386    -0.03100
C918        C  0.02158187  0.42059966  0.27857869    -0.18200
H919        H  0.00238759  0.44572417  0.16716031     0.10900
H920        H  0.02322132  0.44903879  0.20152022     0.11000
H921        H  0.94070055  0.41600030  0.22590441     0.10700
H922        H  0.91998473  0.41281792  0.19181067     0.11800
H923        H  0.02179333  0.43262267  0.23762906     0.11900
H924        H  0.95751565  0.44065839  0.25321371     0.13800
H925        H  0.95931828  0.45884036  0.28858556     0.10300
H926        H  0.97865364  0.45445589  0.32327671     0.12400
H927        H  0.05275671  0.40616748  0.30083084     0.09000
H928        H  0.03342425  0.41018777  0.26649913     0.11700
C929        C  0.96250744  0.44181135  0.05867192    -0.02900
C930        C  0.95259343  0.43012507  0.04035980    -0.05500
C931        C  0.96331178  0.43987058  0.02178209    -0.20600
C932        C  0.98394297  0.46165291  0.02104377     0.25200
C933        C  0.99451061  0.47287320  0.03943007    -0.18100
C934        C  0.98384767  0.46303969  0.05803698    -0.08100
C935        C  0.99404247  0.47166210  0.00082479    -0.18400
C936        C  0.00548515  0.49690053  0.99757676    -0.23200
C937        C  0.01472067  0.50726004  0.97725314     0.27200
C938        C  0.03470678  0.52952930  0.97627173    -0.19900
C939        C  0.04351203  0.54041732  0.95755562    -0.09600
C940        C  0.03227314  0.52941837  0.93934295    -0.10100
C941        C  0.01210743  0.50726386  0.94027426    -0.03100
C942        C  0.00333626  0.49632147  0.95899803    -0.18200
H943        H  0.93634205  0.41356563  0.04036543     0.10900
H944        H  0.95505649  0.43062663  0.00789119     0.11000
H945        H  0.01120514  0.48899401  0.03961924     0.10700
H946        H  0.99214161  0.47221988  0.07193125     0.11800
H947        H  0.99113458  0.45773741  0.98813298     0.11900
H948        H  0.00840259  0.51082261  0.01027068     0.13800
H949        H  0.04364089  0.53850988  0.99006663     0.10300
H950        H  0.05904875  0.55753214  0.95735760     0.12400
H951        H  0.00292090  0.49846735  0.92650174     0.09000
H952        H  0.98716110  0.47976766  0.95900281     0.11700
C953        C  0.83716770  0.45344820  0.11544949    -0.02900
C954        C  0.83514077  0.48220214  0.11534644    -0.05500
C955        C  0.80710079  0.49510439  0.11472109    -0.20600
C956        C  0.78047583  0.47960283  0.11434524     0.25200
C957        C  0.78257401  0.45077568  0.11434126    -0.18100
C958        C  0.81059816  0.43790064  0.11499695    -0.08100
C959        C  0.75115074  0.49422054  0.11329782    -0.18400
C960        C  0.72486734  0.48273847  0.11898276    -0.23200
C961        C  0.69503071  0.49655191  0.11819404     0.27200
C962        C  0.66943051  0.48071086  0.12251852    -0.19900
C963        C  0.64084209  0.49242354  0.12244152    -0.09600
C964        C  0.63708773  0.52037555  0.11810516    -0.10100
C965        C  0.66254997  0.53636371  0.11372775    -0.03100
C966        C  0.69124989  0.52461971  0.11374199    -0.18200
H967        H  0.85524003  0.49475621  0.11563114     0.10900
H968        H  0.80620671  0.51729443  0.11458027     0.11000
H969        H  0.76280559  0.43794441  0.11334562     0.10700
H970        H  0.81145652  0.41571675  0.11490513     0.11800
H971        H  0.75174808  0.51523159  0.10803008     0.11900
H972        H  0.72493845  0.46197973  0.12483866     0.13800
H973        H  0.67152522  0.45910784  0.12601072     0.10300
H974        H  0.62164467  0.47954084  0.12587678     0.12400
H975        H  0.66029707  0.55796807  0.11030696     0.09000
H976        H  0.71013784  0.53783326  0.11049958     0.11700
loop_ 
_geom_bond_atom_site_label_1 
_geom_bond_atom_site_label_2 
_geom_bond_distance 
_geom_bond_site_symmetry_2 
_ccdc_geom_bond_type 
O1            C4   1.268       .  A
O1           Cd6   2.494       .  S
C2           O11   1.265       .  A
C2            O7   1.268       .  A
C2          C953   1.481       .  S
O3            C9   1.267       .  A
O3           Cd6   2.480       .  S
C4           O12   1.264       .  A
C4          C892   1.480       .  S
C5           O10   1.268       .  A
C5            O8   1.265       .  A
C5          C929   1.479       .  S
Cd6          O13   2.445       .  S
Cd6          O12   2.438       .  S
Cd6          O11   2.463       .  S
Cd6           O7   2.473       .  S
Cd6          O10   2.471       .  S
Cd6           O8   2.449       .  S
C9           O13   1.265       .  A
C9          C905   1.479       .  S
O14          C17   1.268       .  A
O14         Cd19   2.482       .  S
C15          O24   1.265       .  A
C15          O20   1.268       .  A
C15         C964   1.479       .  S
O16          C22   1.268       .  A
O16         Cd19   2.483       .  S
C17          O25   1.265       .  A
C17         C809   1.480       .  S
C18          O23   1.268       .  A
C18          O21   1.265       .  A
C18         C857   1.481       .  S
Cd19         O26   2.455       .  S
Cd19         O25   2.449       .  S
Cd19         O24   2.444       .  S
Cd19         O20   2.480       .  S
Cd19         O23   2.486       .  S
Cd19         O21   2.447       .  S
C22          O26   1.265       .  A
C22         C844   1.481       .  S
O27          C30   1.267       .  A
O27         Cd32   2.465       .  S
C28          O37   1.265       .  A
C28          O33   1.266       .  A
C28         C748   1.479       .  S
O29          C35   1.268       .  A
O29         Cd32   2.495       .  S
C30          O38   1.266       .  A
C30         C785   1.479       .  S
C31          O36   1.267       .  A
C31          O34   1.264       .  A
C31         C940   1.483       .  S
Cd32         O39   2.453       .  S
Cd32         O38   2.455       .  S
Cd32         O37   2.451       .  S
Cd32         O33   2.484       .  S
Cd32         O36   2.486       .  S
Cd32         O34   2.471       .  S
C35          O39   1.265       .  A
C35         C772   1.483       .  S
O40          C43   1.268       .  A
O40         Cd45   2.477       .  S
C41          O50   1.265       .  A
C41          O46   1.268       .  A
C41         C689   1.482       .  S
O42          C48   1.269       .  A
O42         Cd45   2.489       .  S
C43          O51   1.266       .  A
C43         C796   1.481       .  S
C44          O49   1.268       .  A
C44          O47   1.263       .  A
C44         C868   1.481       .  S
Cd45         O52   2.449       .  S
Cd45         O51   2.463       .  S
Cd45         O50   2.452       .  S
Cd45         O46   2.496       .  S
Cd45         O49   2.502       .  S
Cd45         O47   2.432       .  S
C48          O52   1.266       .  A
C48         C713   1.482       .  S
O53          C56   1.267       .  A
O53         Cd58   2.477       .  S
C54          O63   1.266       .  A
C54          O59   1.267       .  A
C54         C676   1.481       .  S
O55          C61   1.268       .  A
O55         Cd58   2.492       .  S
C56          O64   1.265       .  A
C56         C628   1.479       .  S
C57          O62   1.267       .  A
C57          O60   1.264       .  A
C57         C652   1.482       .  S
Cd58         O65   2.448       .  S
Cd58         O64   2.455       .  S
Cd58         O63   2.461       .  S
Cd58         O59   2.478       .  S
Cd58         O62   2.489       .  S
Cd58         O60   2.461       .  S
C61          O65   1.265       .  A
C61         C916   1.481       .  S
O66          C69   1.268       .  A
O66         Cd71   2.473       .  S
C67          O76   1.266       .  A
C67          O72   1.268       .  A
C67         C665   1.481       .  S
O68          C74   1.269       .  A
O68         Cd71   2.491       .  S
C69          O77   1.265       .  A
C69         C569   1.478       .  S
C70          O75   1.268       .  A
C70          O73   1.264       .  A
C70         C604   1.479       .  S
Cd71         O78   2.441       .  S
Cd71         O77   2.441       .  S
Cd71         O76   2.451       .  S
Cd71         O72   2.483       .  S
Cd71         O75   2.483       .  S
Cd71         O73   2.447       .  S
C74          O78   1.265       .  A
C74         C833   1.481       .  S
O79          C82   1.268       .  A
O79         Cd84   2.491       .  S
C80          O89   1.265       .  A
C80          O85   1.268       .  A
C80         C545   1.481       .  S
O81          C87   1.269       .  A
O81         Cd84   2.488       .  S
C82          O90   1.265       .  A
C82         C532   1.482       .  S
C83          O88   1.268       .  A
C83          O86   1.264       .  A
C83         C761   1.483       .  S
Cd84         O91   2.453       .  S
Cd84         O90   2.455       .  S
Cd84         O89   2.457       .  S
Cd84         O85   2.477       .  S
Cd84         O88   2.487       .  S
Cd84         O86   2.461       .  S
C87          O91   1.265       .  A
C87         C641   1.482       .  S
O92          C95   1.270       .  A
O92         Cd97   2.487       .  S
C93         O102   1.264       .  A
C93          O98   1.268       .  A
C93         C508   1.483       .  S
O94         C100   1.269       .  A
O94         Cd97   2.488       .  S
C95         O103   1.266       .  A
C95         C556   1.482       .  S
C96         O101   1.268       .  A
C96          O99   1.265       .  A
C96         C593   1.481       .  S
Cd97        O104   2.447       .  S
Cd97        O103   2.441       .  S
Cd97        O102   2.449       .  S
Cd97         O98   2.500       .  S
Cd97        O101   2.495       .  S
Cd97         O99   2.442       .  S
C100        O104   1.265       .  A
C100        C724   1.481       .  S
O105        C108   1.269       .  A
O105       Cd110   2.498       .  S
C106        O115   1.265       .  A
C106        O111   1.269       .  A
C106        C497   1.484       .  S
O107        C113   1.268       .  A
O107       Cd110   2.491       .  S
C108        O116   1.264       .  A
C108        C484   1.479       .  S
C109        O114   1.268       .  A
C109        O112   1.265       .  A
C109        C449   1.481       .  S
Cd110       O117   2.444       .  S
Cd110       O116   2.424       .  S
Cd110       O115   2.436       .  S
Cd110       O111   2.511       .  S
Cd110       O114   2.492       .  S
Cd110       O112   2.437       .  S
C113        O117   1.265       .  A
C113        C436   1.481       .  S
O118        C121   1.269       .  A
O118       Cd123   2.482       .  S
C119        O128   1.265       .  A
C119        O124   1.268       .  A
C119        C521   1.482       .  S
O120        C126   1.269       .  A
O120       Cd123   2.496       .  S
C121        O129   1.265       .  A
C121        C473   1.479       .  S
C122        O127   1.269       .  A
C122        O125   1.265       .  A
C122        C401   1.481       .  S
Cd123       O130   2.435       .  S
Cd123       O129   2.433       .  S
Cd123       O128   2.446       .  S
Cd123       O124   2.495       .  S
Cd123       O127   2.492       .  S
Cd123       O125   2.433       .  S
C126        O130   1.264       .  A
C126        C377   1.480       .  S
O131        C134   1.269       .  A
O131       Cd136   2.494       .  S
C132        O141   1.265       .  A
C132        O137   1.268       .  A
C132        C353   1.479       .  S
O133        C139   1.268       .  A
O133       Cd136   2.481       .  S
C134        O142   1.264       .  A
C134        C617   1.479       .  S
C135        O140   1.269       .  A
C135        O138   1.265       .  A
C135        C412   1.483       .  S
Cd136       O143   2.462       .  S
Cd136       O142   2.429       .  S
Cd136       O141   2.443       .  S
Cd136       O137   2.477       .  S
Cd136       O140   2.491       .  S
Cd136       O138   2.450       .  S
C139        O143   1.265       .  A
C139        C329   1.483       .  S
O144        C147   1.269       .  A
O144       Cd149   2.499       .  S
C145        O154   1.265       .  A
C145        O150   1.269       .  A
C145        C364   1.479       .  S
O146        C152   1.269       .  A
O146       Cd149   2.481       .  S
C147        O155   1.264       .  A
C147        C580   1.480       .  S
C148        O153   1.268       .  A
C148        O151   1.265       .  A
C148        C460   1.481       .  S
Cd149       O156   2.440       .  S
Cd149       O155   2.427       .  S
Cd149       O154   2.439       .  S
Cd149       O150   2.480       .  S
Cd149       O153   2.483       .  S
Cd149       O151   2.452       .  S
C152        O156   1.265       .  A
C152        C316   1.480       .  S
O157        C160   1.267       .  A
O157       Cd162   2.473       .  S
C158        O167   1.265       .  A
C158        O163   1.267       .  A
C158        C737   1.477       .  S
O159        C165   1.268       .  A
O159       Cd162   2.479       .  S
C160        O168   1.265       .  A
C160        C281   1.478       .  S
C161        O166   1.268       .  A
C161        O164   1.264       .  A
C161        C257   1.480       .  S
Cd162       O169   2.460       .  S
Cd162       O168   2.445       .  S
Cd162       O167   2.444       .  S
Cd162       O163   2.468       .  S
Cd162       O166   2.496       .  S
Cd162       O164   2.442       .  S
C165        O169   1.265       .  A
C165        C388   1.482       .  S
O170        C173   1.268       .  A
O170       Cd175   2.488       .  S
C171        O180   1.266       .  A
C171        O176   1.268       .  A
C171        C292   1.479       .  S
O172        C178   1.268       .  A
O172       Cd175   2.495       .  S
C173        O181   1.264       .  A
C173        C700   1.480       .  S
C174        O179   1.268       .  A
C174        O177   1.265       .  A
C174        C425   1.480       .  S
Cd175       O182   2.440       .  S
Cd175       O181   2.445       .  S
Cd175       O180   2.445       .  S
Cd175       O176   2.480       .  S
Cd175       O179   2.492       .  S
Cd175       O177   2.442       .  S
C178        O182   1.264       .  A
C178        C244   1.481       .  S
O183        C186   1.267       .  A
O183       Cd188   2.472       .  S
C184        O193   1.265       .  A
C184        O189   1.267       .  A
C184        C209   1.479       .  S
O185        C191   1.267       .  A
O185       Cd188   2.490       .  S
C186        O194   1.265       .  A
C186        C881   1.480       .  S
C187        O192   1.268       .  A
C187        O190   1.265       .  A
C187        C268   1.481       .  S
Cd188       O195   2.460       .  S
Cd188       O194   2.460       .  S
Cd188       O193   2.452       .  S
Cd188       O189   2.474       .  S
Cd188       O192   2.482       .  S
Cd188       O190   2.456       .  S
C191        O195   1.264       .  A
C191        C340   1.482       .  S
O196        C199   1.267       .  A
O196       Cd201   2.481       .  S
C197        O206   1.265       .  A
C197        O202   1.266       .  A
C197        C220   1.477       .  S
O198        C204   1.268       .  A
O198       Cd201   2.477       .  S
C199        O207   1.265       .  A
C199        C820   1.479       .  S
C200        O205   1.267       .  A
C200        O203   1.264       .  A
C200        C233   1.482       .  S
Cd201       O208   2.456       .  S
Cd201       O207   2.442       .  S
Cd201       O206   2.453       .  S
Cd201       O202   2.466       .  S
Cd201       O205   2.490       .  S
Cd201       O203   2.455       .  S
C204        O208   1.265       .  A
C204        C305   1.481       .  S
C209        C210   1.403       .  A
C209        C214   1.405   1_545  A
C210        C211   1.398       .  A
C210        H223   1.083       .  S
C211        C212   1.405       .  A
C211        H224   1.084       .  S
C212        C213   1.409   1_545  A
C212        C215   1.488   1_545  S
C213        C214   1.398       .  A
C213        H225   1.080       .  S
C214        H226   1.083       .  S
C215        C216   1.349       .  D
C215        H227   1.082   1_565  S
C216        C217   1.491       .  S
C216        H228   1.084       .  S
C217        C218   1.405       .  A
C217        C222   1.410       .  A
C218        C219   1.398       .  A
C218        H229   1.084       .  S
C219        C220   1.403       .  A
C219        H230   1.083       .  S
C220        C221   1.403       .  A
C221        C222   1.397       .  A
C221        H231   1.083       .  S
C222        H232   1.079       .  S
C233        C234   1.405       .  A
C233        C238   1.405       .  A
C234        C235   1.398       .  A
C234        H247   1.083       .  S
C235        C236   1.403       .  A
C235        H248   1.083       .  S
C236        C237   1.410       .  A
C236        C239   1.490   1_554  S
C237        C238   1.401       .  A
C237        H249   1.081       .  S
C238        H250   1.083       .  S
C239        C240   1.348       .  D
C239        H251   1.084       .  S
C240        C241   1.491   1_565  S
C240        H252   1.085   1_566  S
C241        C242   1.403       .  A
C241        C246   1.411   1_545  A
C242        C243   1.396       .  A
C242        H253   1.083       .  S
C243        C244   1.405       .  A
C243        H254   1.083       .  S
C244        C245   1.405   1_545  A
C245        C246   1.402       .  A
C245        H255   1.083       .  S
C246        H256   1.081       .  S
C257        C258   1.404       .  A
C257        C262   1.404       .  A
C258        C259   1.402       .  A
C258        H271   1.083       .  S
C259        C260   1.406       .  A
C259        H272   1.083   1_665  S
C260        C261   1.408       .  A
C260        C263   1.490       .  S
C261        C262   1.396       .  A
C261        H273   1.081       .  S
C262        H274   1.083       .  S
C263        C264   1.350   1_556  D
C263        H275   1.084   1_665  S
C264        C265   1.489       .  S
C264        H276   1.084       .  S
C265        C266   1.405       .  A
C265        C270   1.408   1_665  A
C266        C267   1.398       .  A
C266        H277   1.083       .  S
C267        C268   1.403   1_665  A
C267        H278   1.083       .  S
C268        C269   1.406       .  A
C269        C270   1.400       .  A
C269        H279   1.083       .  S
C270        H280   1.081       .  S
C281        C282   1.404       .  A
C281        C286   1.404       .  A
C282        C283   1.399       .  A
C282        H295   1.083       .  S
C283        C284   1.405       .  A
C283        H296   1.084       .  S
C284        C285   1.408       .  A
C284        C287   1.488       .  S
C285        C286   1.397       .  A
C285        H297   1.080   1_565  S
C286        H298   1.084       .  S
C287        C288   1.349       .  D
C287        H299   1.084       .  S
C288        C289   1.488   1_565  S
C288        H300   1.084   1_565  S
C289        C290   1.405       .  A
C289        C294   1.408   1_545  A
C290        C291   1.400       .  A
C290        H301   1.084       .  S
C291        C292   1.404       .  A
C291        H302   1.083       .  S
C292        C293   1.405       .  A
C293        C294   1.397   1_545  A
C293        H303   1.083   1_545  S
C294        H304   1.081       .  S
C305        C306   1.405       .  A
C305        C310   1.405       .  A
C306        C307   1.400       .  A
C306        H319   1.083       .  S
C307        C308   1.404       .  A
C307        H320   1.083       .  S
C308        C309   1.407       .  A
C308        C311   1.487       .  S
C309        C310   1.398       .  A
C309        H321   1.082       .  S
C310        H322   1.083       .  S
C311        C312   1.348       .  D
C311        H323   1.085       .  S
C312        C313   1.487       .  S
C312        H324   1.086       .  S
C313        C314   1.405       .  A
C313        C318   1.407       .  A
C314        C315   1.400       .  A
C314        H325   1.083       .  S
C315        C316   1.404       .  A
C315        H326   1.083       .  S
C316        C317   1.405       .  A
C317        C318   1.397       .  A
C317        H327   1.083       .  S
C318        H328   1.081       .  S
C329        C330   1.404       .  A
C329        C334   1.406       .  A
C330        C331   1.400       .  A
C330        H343   1.083       .  S
C331        C332   1.405       .  A
C331        H344   1.083   1_655  S
C332        C333   1.408       .  A
C332        C335   1.490       .  S
C333        C334   1.400       .  A
C333        H345   1.081       .  S
C334        H346   1.083       .  S
C335        C336   1.349       .  D
C335        H347   1.085   1_655  S
C336        C337   1.491       .  S
C336        H348   1.085       .  S
C337        C338   1.405       .  A
C337        C342   1.409   1_655  A
C338        C339   1.401       .  A
C338        H349   1.083       .  S
C339        C340   1.404   1_655  A
C339        H350   1.083       .  S
C340        C341   1.405       .  A
C341        C342   1.399       .  A
C341        H351   1.083       .  S
C342        H352   1.081       .  S
C353        C354   1.405   1_545  A
C353        C358   1.404       .  A
C354        C355   1.397       .  A
C354        H367   1.083       .  S
C355        C356   1.403       .  A
C355        H368   1.083       .  S
C356        C357   1.409   1_565  A
C356        C359   1.487       .  S
C357        C358   1.399       .  A
C357        H369   1.081       .  S
C358        H370   1.083       .  S
C359        C360   1.348       .  D
C359        H371   1.084       .  S
C360        C361   1.487       .  S
C360        H372   1.084   1_565  S
C361        C362   1.403       .  A
C361        C366   1.409       .  A
C362        C363   1.397       .  A
C362        H373   1.083   1_565  S
C363        C364   1.405       .  A
C363        H374   1.083       .  S
C364        C365   1.404       .  A
C365        C366   1.400       .  A
C365        H375   1.083       .  S
C366        H376   1.081       .  S
C377        C378   1.405       .  A
C377        C382   1.406   1_455  A
C378        C379   1.395       .  A
C378        H391   1.083       .  S
C379        C380   1.402       .  A
C379        H392   1.084       .  S
C380        C381   1.408   1_455  A
C380        C383   1.485   1_455  S
C381        C382   1.403       .  A
C381        H393   1.082       .  S
C382        H394   1.083       .  S
C383        C384   1.347       .  D
C383        H395   1.086   1_655  S
C384        C385   1.487       .  S
C384        H396   1.086       .  S
C385        C386   1.403       .  A
C385        C390   1.408       .  A
C386        C387   1.399       .  A
C386        H397   1.083       .  S
C387        C388   1.406       .  A
C387        H398   1.083       .  S
C388        C389   1.404       .  A
C389        C390   1.399       .  A
C389        H399   1.083       .  S
C390        H400   1.082       .  S
C401        C402   1.405       .  A
C401        C406   1.405   1_455  A
C402        C403   1.396       .  A
C402        H415   1.083       .  S
C403        C404   1.403   1_455  A
C403        H416   1.084       .  S
C404        C405   1.411       .  A
C404        C407   1.491       .  S
C405        C406   1.403       .  A
C405        H417   1.080       .  S
C406        H418   1.083       .  S
C407        C408   1.348   1_565  D
C407        H419   1.084       .  S
C408        C409   1.492       .  S
C408        H420   1.084       .  S
C409        C410   1.403       .  A
C409        C414   1.411       .  A
C410        C411   1.397       .  A
C410        H421   1.084       .  S
C411        C412   1.405       .  A
C411        H422   1.083       .  S
C412        C413   1.405       .  A
C413        C414   1.402       .  A
C413        H423   1.083       .  S
C414        H424   1.080   1_545  S
C425        C426   1.405       .  A
C425        C430   1.405       .  A
C426        C427   1.396       .  A
C426        H439   1.083       .  S
C427        C428   1.402       .  A
C427        H440   1.083       .  S
C428        C429   1.410       .  A
C428        C431   1.489       .  S
C429        C430   1.402       .  A
C429        H441   1.082       .  S
C430        H442   1.083       .  S
C431        C432   1.348       .  D
C431        H443   1.083       .  S
C432        C433   1.492       .  S
C432        H444   1.085       .  S
C433        C434   1.404       .  A
C433        C438   1.411       .  A
C434        C435   1.396       .  A
C434        H445   1.083       .  S
C435        C436   1.404       .  A
C435        H446   1.083       .  S
C436        C437   1.405       .  A
C437        C438   1.402       .  A
C437        H447   1.083       .  S
C438        H448   1.080       .  S
C449        C450   1.405   1_545  A
C449        C454   1.404       .  A
C450        C451   1.402       .  A
C450        H463   1.083       .  S
C451        C452   1.407       .  A
C451        H464   1.083       .  S
C452        C453   1.408   1_565  A
C452        C455   1.491       .  S
C453        C454   1.396       .  A
C453        H465   1.080       .  S
C454        H466   1.083       .  S
C455        C456   1.352       .  D
C455        H467   1.084       .  S
C456        C457   1.491       .  S
C456        H468   1.084       .  S
C457        C458   1.406       .  A
C457        C462   1.408       .  A
C458        C459   1.399       .  A
C458        H469   1.083       .  S
C459        C460   1.404       .  A
C459        H470   1.083       .  S
C460        C461   1.406       .  A
C461        C462   1.399       .  A
C461        H471   1.083       .  S
C462        H472   1.080       .  S
C473        C474   1.404       .  A
C473        C478   1.404       .  A
C474        C475   1.395       .  A
C474        H487   1.083       .  S
C475        C476   1.403       .  A
C475        H488   1.084   1_565  S
C476        C477   1.412       .  A
C476        C479   1.490       .  S
C477        C478   1.400       .  A
C477        H489   1.079       .  S
C478        H490   1.083       .  S
C479        C480   1.346       .  D
C479        H491   1.086   1_565  S
C480        C481   1.486       .  S
C480        H492   1.083       .  S
C481        C482   1.401       .  A
C481        C486   1.410   1_565  A
C482        C483   1.394       .  A
C482        H493   1.083       .  S
C483        C484   1.405   1_565  A
C483        H494   1.083       .  S
C484        C485   1.404       .  A
C485        C486   1.401       .  A
C485        H495   1.083       .  S
C486        H496   1.082       .  S
C497        C498   1.405       .  A
C497        C502   1.406       .  A
C498        C499   1.396       .  A
C498        H511   1.083       .  S
C499        C500   1.402       .  A
C499        H512   1.084       .  S
C500        C501   1.412       .  A
C500        C503   1.493       .  S
C501        C502   1.405       .  A
C501        H513   1.081       .  S
C502        H514   1.083       .  S
C503        C504   1.348       .  D
C503        H515   1.084       .  S
C504        C505   1.494       .  S
C504        H516   1.084       .  S
C505        C506   1.403       .  A
C505        C510   1.412       .  A
C506        C507   1.397       .  A
C506        H517   1.084       .  S
C507        C508   1.405       .  A
C507        H518   1.083       .  S
C508        C509   1.405       .  A
C509        C510   1.403       .  A
C509        H519   1.083       .  S
C510        H520   1.080       .  S
C521        C522   1.404   1_455  A
C521        C526   1.404       .  A
C522        C523   1.396       .  A
C522        H535   1.083       .  S
C523        C524   1.404       .  A
C523        H536   1.084       .  S
C524        C525   1.412   1_655  A
C524        C527   1.495       .  S
C525        C526   1.403       .  A
C525        H537   1.079       .  S
C526        H538   1.083       .  S
C527        C528   1.350   1_655  D
C527        H539   1.082       .  S
C528        C529   1.495   1_455  S
C528        H540   1.083       .  S
C529        C530   1.405   1_655  A
C529        C534   1.412       .  A
C530        C531   1.398   1_455  A
C530        H541   1.084       .  S
C531        C532   1.404       .  A
C531        H542   1.083   1_655  S
C532        C533   1.404       .  A
C533        C534   1.401       .  A
C533        H543   1.083       .  S
C534        H544   1.079       .  S
C545        C546   1.403       .  A
C545        C550   1.405       .  A
C546        C547   1.399       .  A
C546        H559   1.083       .  S
C547        C548   1.407       .  A
C547        H560   1.083       .  S
C548        C549   1.410       .  A
C548        C551   1.495       .  S
C549        C550   1.400       .  A
C549        H561   1.078       .  S
C550        H562   1.083       .  S
C551        C552   1.352       .  D
C551        H563   1.083       .  S
C552        C553   1.494       .  S
C552        H564   1.082       .  S
C553        C554   1.407       .  A
C553        C558   1.409       .  A
C554        C555   1.401       .  A
C554        H565   1.083       .  S
C555        C556   1.404       .  A
C555        H566   1.083       .  S
C556        C557   1.405       .  A
C557        C558   1.398       .  A
C557        H567   1.083       .  S
C558        H568   1.080       .  S
C569        C570   1.404       .  A
C569        C574   1.403       .  A
C570        C571   1.396       .  A
C570        H583   1.083       .  S
C571        C572   1.403       .  A
C571        H584   1.084       .  S
C572        C573   1.411       .  A
C572        C575   1.490       .  S
C573        C574   1.400       .  A
C573        H585   1.080       .  S
C574        H586   1.083       .  S
C575        C576   1.347       .  D
C575        H587   1.084       .  S
C576        C577   1.489       .  S
C576        H588   1.084       .  S
C577        C578   1.402       .  A
C577        C582   1.411       .  A
C578        C579   1.395       .  A
C578        H589   1.084       .  S
C579        C580   1.405       .  A
C579        H590   1.083       .  S
C580        C581   1.404       .  A
C581        C582   1.402       .  A
C581        H591   1.083       .  S
C582        H592   1.080       .  S
C593        C594   1.404       .  A
C593        C598   1.404       .  A
C594        C595   1.395       .  A
C594        H607   1.083       .  S
C595        C596   1.404       .  A
C595        H608   1.084       .  S
C596        C597   1.412       .  A
C596        C599   1.492       .  S
C597        C598   1.402       .  A
C597        H609   1.079       .  S
C598        H610   1.083       .  S
C599        C600   1.348       .  D
C599        H611   1.085       .  S
C600        C601   1.488       .  S
C600        H612   1.082       .  S
C601        C602   1.403       .  A
C601        C606   1.409       .  A
C602        C603   1.397       .  A
C602        H613   1.084       .  S
C603        C604   1.406       .  A
C603        H614   1.083       .  S
C604        C605   1.404       .  A
C605        C606   1.399       .  A
C605        H615   1.083       .  S
C606        H616   1.081       .  S
C617        C618   1.404       .  A
C617        C622   1.404       .  A
C618        C619   1.401       .  A
C618        H631   1.083       .  S
C619        C620   1.407       .  A
C619        H632   1.083       .  S
C620        C621   1.408       .  A
C620        C623   1.491       .  S
C621        C622   1.395       .  A
C621        H633   1.080   1_655  S
C622        H634   1.083       .  S
C623        C624   1.350       .  D
C623        H635   1.085       .  S
C624        C625   1.486   1_655  S
C624        H636   1.082   1_655  S
C625        C626   1.405       .  A
C625        C630   1.407   1_455  A
C626        C627   1.398       .  A
C626        H637   1.083       .  S
C627        C628   1.404       .  A
C627        H638   1.083       .  S
C628        C629   1.405   1_455  A
C629        C630   1.398       .  A
C629        H639   1.083       .  S
C630        H640   1.081       .  S
C641        C642   1.404       .  A
C641        C646   1.405       .  A
C642        C643   1.401       .  A
C642        H655   1.083       .  S
C643        C644   1.406       .  A
C643        H656   1.083   1_655  S
C644        C645   1.408       .  A
C644        C647   1.491       .  S
C645        C646   1.398       .  A
C645        H657   1.081       .  S
C646        H658   1.083       .  S
C647        C648   1.350       .  D
C647        H659   1.084   1_655  S
C648        C649   1.490       .  S
C648        H660   1.084       .  S
C649        C650   1.405       .  A
C649        C654   1.408   1_655  A
C650        C651   1.400       .  A
C650        H661   1.083       .  S
C651        C652   1.404   1_655  A
C651        H662   1.083       .  S
C652        C653   1.406       .  A
C653        C654   1.399       .  A
C653        H663   1.083       .  S
C654        H664   1.081       .  S
C665        C666   1.404       .  A
C665        C670   1.404       .  A
C666        C667   1.401       .  A
C666        H679   1.083       .  S
C667        C668   1.407       .  A
C667        H680   1.083       .  S
C668        C669   1.409       .  A
C668        C671   1.493       .  S
C669        C670   1.398       .  A
C669        H681   1.080       .  S
C670        H682   1.083       .  S
C671        C672   1.351       .  D
C671        H683   1.084       .  S
C672        C673   1.492       .  S
C672        H684   1.083       .  S
C673        C674   1.406       .  A
C673        C678   1.409       .  A
C674        C675   1.400       .  A
C674        H685   1.083       .  S
C675        C676   1.404       .  A
C675        H686   1.083       .  S
C676        C677   1.405       .  A
C677        C678   1.399       .  A
C677        H687   1.083       .  S
C678        H688   1.080       .  S
C689        C690   1.405       .  A
C689        C694   1.406       .  A
C690        C691   1.396       .  A
C690        H703   1.083       .  S
C691        C692   1.402       .  A
C691        H704   1.084       .  S
C692        C693   1.409       .  A
C692        C695   1.487       .  S
C693        C694   1.402       .  A
C693        H705   1.081       .  S
C694        H706   1.083       .  S
C695        C696   1.347       .  D
C695        H707   1.084       .  S
C696        C697   1.490       .  S
C696        H708   1.085       .  S
C697        C698   1.403       .  A
C697        C702   1.411       .  A
C698        C699   1.397       .  A
C698        H709   1.083       .  S
C699        C700   1.405       .  A
C699        H710   1.083       .  S
C700        C701   1.404       .  A
C701        C702   1.401       .  A
C701        H711   1.083       .  S
C702        H712   1.081       .  S
C713        C714   1.405       .  A
C713        C718   1.406       .  A
C714        C715   1.396       .  A
C714        H727   1.083       .  S
C715        C716   1.402       .  A
C715        H728   1.084       .  S
C716        C717   1.409       .  A
C716        C719   1.487       .  S
C717        C718   1.403       .  A
C717        H729   1.082       .  S
C718        H730   1.083       .  S
C719        C720   1.347       .  D
C719        H731   1.086       .  S
C720        C721   1.488       .  S
C720        H732   1.086       .  S
C721        C722   1.402       .  A
C721        C726   1.409       .  A
C722        C723   1.398       .  A
C722        H733   1.084       .  S
C723        C724   1.406       .  A
C723        H734   1.083       .  S
C724        C725   1.405       .  A
C725        C726   1.401       .  A
C725        H735   1.083       .  S
C726        H736   1.082       .  S
C737        C738   1.404       .  A
C737        C742   1.404       .  A
C738        C739   1.398       .  A
C738        H751   1.083       .  S
C739        C740   1.405       .  A
C739        H752   1.084       .  S
C740        C741   1.408       .  A
C740        C743   1.486       .  S
C741        C742   1.397       .  A
C741        H753   1.080   1_655  S
C742        H754   1.083   1_655  S
C743        C744   1.349   1_655  D
C743        H755   1.085       .  S
C744        C745   1.486       .  S
C744        H756   1.084       .  S
C745        C746   1.405       .  A
C745        C750   1.407   1_455  A
C746        C747   1.400       .  A
C746        H757   1.084       .  S
C747        C748   1.405       .  A
C747        H758   1.083       .  S
C748        C749   1.404       .  A
C749        C750   1.395   1_455  A
C749        H759   1.083   1_455  S
C750        H760   1.081       .  S
C761        C762   1.404       .  A
C761        C766   1.407       .  A
C762        C763   1.400   1_655  A
C762        H775   1.083   1_655  S
C763        C764   1.405   1_455  A
C763        H776   1.083       .  S
C764        C765   1.409       .  A
C764        C767   1.492   1_655  S
C765        C766   1.401       .  A
C765        H777   1.081       .  S
C766        H778   1.083       .  S
C767        C768   1.350   1_455  D
C767        H779   1.085       .  S
C768        C769   1.492   1_655  S
C768        H780   1.085       .  S
C769        C770   1.406   1_455  A
C769        C774   1.408       .  A
C770        C771   1.402       .  A
C770        H781   1.083       .  S
C771        C772   1.405   1_655  A
C771        H782   1.083       .  S
C772        C773   1.405       .  A
C773        C774   1.398       .  A
C773        H783   1.083       .  S
C774        H784   1.081       .  S
C785        C786   1.404       .  A
C785        C790   1.405       .  A
C786        C787   1.398       .  A
C786        H799   1.083       .  S
C787        C788   1.405       .  A
C787        H800   1.084       .  S
C788        C789   1.410       .  A
C788        C791   1.491       .  S
C789        C790   1.399       .  A
C789        H801   1.080       .  S
C790        H802   1.083       .  S
C791        C792   1.349       .  D
C791        H803   1.085       .  S
C792        C793   1.490       .  S
C792        H804   1.084       .  S
C793        C794   1.405       .  A
C793        C798   1.409       .  A
C794        C795   1.399       .  A
C794        H805   1.084       .  S
C795        C796   1.404       .  A
C795        H806   1.083       .  S
C796        C797   1.406       .  A
C797        C798   1.400       .  A
C797        H807   1.083       .  S
C798        H808   1.081       .  S
C809        C810   1.404       .  A
C809        C814   1.405       .  A
C810        C811   1.399       .  A
C810        H823   1.083       .  S
C811        C812   1.406       .  A
C811        H824   1.083       .  S
C812        C813   1.408       .  A
C812        C815   1.490       .  S
C813        C814   1.397       .  A
C813        H825   1.080       .  S
C814        H826   1.083       .  S
C815        C816   1.350       .  D
C815        H827   1.085       .  S
C816        C817   1.487       .  S
C816        H828   1.083       .  S
C817        C818   1.405       .  A
C817        C822   1.407       .  A
C818        C819   1.400       .  A
C818        H829   1.083       .  S
C819        C820   1.404       .  A
C819        H830   1.083       .  S
C820        C821   1.405       .  A
C821        C822   1.397       .  A
C821        H831   1.083       .  S
C822        H832   1.081       .  S
C833        C834   1.405       .  A
C833        C838   1.405       .  A
C834        C835   1.401       .  A
C834        H847   1.083       .  S
C835        C836   1.405       .  A
C835        H848   1.083       .  S
C836        C837   1.407       .  A
C836        C839   1.488       .  S
C837        C838   1.397       .  A
C837        H849   1.081       .  S
C838        H850   1.083       .  S
C839        C840   1.349       .  D
C839        H851   1.085       .  S
C840        C841   1.488       .  S
C840        H852   1.086       .  S
C841        C842   1.405       .  A
C841        C846   1.408       .  A
C842        C843   1.400       .  A
C842        H853   1.083       .  S
C843        C844   1.404       .  A
C843        H854   1.083       .  S
C844        C845   1.406       .  A
C845        C846   1.398       .  A
C845        H855   1.083       .  S
C846        H856   1.081       .  S
C857        C858   1.404       .  A
C857        C862   1.405       .  A
C858        C859   1.400       .  A
C858        H871   1.083       .  S
C859        C860   1.406       .  A
C859        H872   1.083       .  S
C860        C861   1.407       .  A
C860        C863   1.490       .  S
C861        C862   1.397       .  A
C861        H873   1.081       .  S
C862        H874   1.083       .  S
C863        C864   1.352   1_554  D
C863        H875   1.082       .  S
C864        C865   1.493       .  S
C864        H876   1.084       .  S
C865        C866   1.408       .  A
C865        C870   1.408       .  A
C866        C867   1.401       .  A
C866        H877   1.083       .  S
C867        C868   1.404       .  A
C867        H878   1.083       .  S
C868        C869   1.405       .  A
C869        C870   1.396       .  A
C869        H879   1.083       .  S
C870        H880   1.079       .  S
C881        C882   1.403       .  A
C881        C886   1.406   1_455  A
C882        C883   1.397       .  A
C882        H895   1.083       .  S
C883        C884   1.404       .  A
C883        H896   1.083       .  S
C884        C885   1.408   1_455  A
C884        C887   1.487   1_455  S
C885        C886   1.400       .  A
C885        H897   1.081       .  S
C886        H898   1.083       .  S
C887        C888   1.349       .  D
C887        H899   1.084   1_655  S
C888        C889   1.489       .  S
C888        H900   1.084       .  S
C889        C890   1.405       .  A
C889        C894   1.407       .  A
C890        C891   1.401       .  A
C890        H901   1.083       .  S
C891        C892   1.405       .  A
C891        H902   1.083       .  S
C892        C893   1.405       .  A
C893        C894   1.396       .  A
C893        H903   1.083       .  S
C894        H904   1.081   1_655  S
C905        C906   1.405       .  A
C905        C910   1.405       .  A
C906        C907   1.400   1_655  A
C906        H919   1.083   1_655  S
C907        C908   1.404   1_455  A
C907        H920   1.083       .  S
C908        C909   1.406       .  A
C908        C911   1.485       .  S
C909        C910   1.397       .  A
C909        H921   1.082       .  S
C910        H922   1.083       .  S
C911        C912   1.348       .  D
C911        H923   1.086   1_655  S
C912        C913   1.487       .  S
C912        H924   1.086       .  S
C913        C914   1.405       .  A
C913        C918   1.407   1_655  A
C914        C915   1.401       .  A
C914        H925   1.083       .  S
C915        C916   1.405   1_655  A
C915        H926   1.083       .  S
C916        C917   1.405       .  A
C917        C918   1.397       .  A
C917        H927   1.083       .  S
C918        H928   1.082       .  S
C929        C930   1.405       .  A
C929        C934   1.404       .  A
C930        C931   1.397       .  A
C930        H943   1.083       .  S
C931        C932   1.404       .  A
C931        H944   1.084       .  S
C932        C933   1.409       .  A
C932        C935   1.488       .  S
C933        C934   1.399       .  A
C933        H945   1.081   1_655  S
C934        H946   1.083       .  S
C935        C936   1.348   1_654  D
C935        H947   1.084   1_554  S
C936        C937   1.489       .  S
C936        H948   1.085   1_556  S
C937        C938   1.404       .  A
C937        C942   1.409       .  A
C938        C939   1.399       .  A
C938        H949   1.084       .  S
C939        C940   1.406       .  A
C939        H950   1.083       .  S
C940        C941   1.405       .  A
C941        C942   1.400       .  A
C941        H951   1.083       .  S
C942        H952   1.081   1_455  S
C953        C954   1.406       .  A
C953        C958   1.404       .  A
C954        C955   1.399       .  A
C954        H967   1.083       .  S
C955        C956   1.404       .  A
C955        H968   1.083       .  S
C956        C957   1.409       .  A
C956        C959   1.490       .  S
C957        C958   1.398       .  A
C957        H969   1.080       .  S
C958        H970   1.083       .  S
C959        C960   1.349       .  D
C959        H971   1.083       .  S
C960        C961   1.491       .  S
C960        H972   1.084       .  S
C961        C962   1.404       .  A
C961        C966   1.411       .  A
C962        C963   1.396       .  A
C962        H973   1.083       .  S
C963        C964   1.404       .  A
C963        H974   1.083       .  S
C964        C965   1.404       .  A
C965        C966   1.401       .  A
C965        H975   1.083       .  S
C966        H976   1.080       .  S
