geometry optimzed in LAMMPS
_audit_creation_date              2020-12-01 
_audit_creation_method            'lammps2cif' 
_symmetry_space_group_name_H-M    'P1' 
_symmetry_Int_Tables_number       1 
_symmetry_cell_setting            triclinic 
loop_ 
_symmetry_equiv_pos_as_xyz 
  x,y,z 
_cell_length_a                    44.21710559 
_cell_length_b                    44.302125087287656 
_cell_length_c                    28.18540635733261 
_cell_angle_alpha                 90.0897069782687 
_cell_angle_beta                  90.00028313078299 
_cell_angle_gamma                 119.96765461233718 
loop_ 
_atom_site_label 
_atom_site_type_symbol 
_atom_site_fract_x 
_atom_site_fract_y 
_atom_site_fract_z 
_atom_site_charge 
O1          O  0.37523740  0.38064969  0.41854329    -0.73400
O2          O  0.34890654  0.40617640  0.29534401    -0.74400
O3          O  0.31697462  0.34729987  0.35612680    -0.63000
O4          O  0.40672809  0.43905007  0.35699835    -0.71400
O5          O  0.43253969  0.41425461  0.31875096    -0.71000
O6          O  0.34319481  0.32307758  0.31758271    -0.62200
O7          O  0.37478426  0.38188795  0.25622520    -0.74700
O8          O  0.40114397  0.35628630  0.38005942    -0.73500
Cu9        Cu  0.36091609  0.39397064  0.35814647     1.04600
Cu10       Cu  0.38868292  0.36791098  0.31678433     1.04300
C11         C  0.39302657  0.36515771  0.41913443     0.92800
C12         C  0.35865633  0.39913945  0.25626553     0.91900
C13         C  0.31586203  0.32073958  0.33646956     0.84100
C14         C  0.43387243  0.44106428  0.33782974     0.90400
O15         O  0.12812498  0.13025885  0.41447123    -0.73400
O16         O  0.15224716  0.10094238  0.29240056    -0.74400
O17         O  0.18623621  0.16079716  0.35190761    -0.63000
O18         O  0.09486436  0.07125823  0.35496487    -0.71400
O19         O  0.06984192  0.09585713  0.31455089    -0.71000
O20         O  0.16093651  0.18569831  0.31287712    -0.62200
O21         O  0.12799075  0.12628500  0.25197514    -0.74700
O22         O  0.10254342  0.15443823  0.37469532    -0.73500
Cu23       Cu  0.14138934  0.11511347  0.35477246     1.04600
Cu24       Cu  0.11464192  0.14159386  0.31203817     1.04300
C25         C  0.11049532  0.14591641  0.41411839     0.92800
C26         C  0.14319414  0.10816517  0.25288357     0.91900
C27         C  0.18792836  0.18759007  0.33234996     0.84100
C28         C  0.06792544  0.06933030  0.33528160     0.90400
O29         O  0.02661459  0.43289536  0.64551184    -0.73400
O30         O  0.02518746  0.34149138  0.64618920    -0.74400
O31         O  0.99995401  0.37481920  0.58382394    -0.63000
O32         O  0.05196563  0.40046891  0.70746910    -0.74400
O33         O  0.50497845  0.37784793  0.74988467    -0.71000
O34         O  0.44538133  0.35258267  0.63275867    -0.62200
O35         O  0.47291724  0.31827665  0.68902292    -0.74700
O36         O  0.47703491  0.41080286  0.69341129    -0.73500
Cu37       Cu  0.02769323  0.38808329  0.64442025     1.04600
Cu38       Cu  0.47342775  0.36389399  0.69287216     1.04300
C39         C  0.00160116  0.43501252  0.66491003     0.92800
C40         C  0.99954211  0.31463066  0.66494918     0.91900
C41         C  0.46015867  0.36027337  0.59213727     0.84100
C42         C  0.03523615  0.39279385  0.74666278     0.90400
O43         O  0.05581358  0.15257485  0.62750090    -0.73400
O44         O  0.99781217  0.12227016  0.74639335    -0.74400
O45         O  0.02797932  0.09319624  0.68638650    -0.63000
O46         O  0.02601691  0.18271156  0.68740386    -0.71400
O47         O  0.47408159  0.15878595  0.64395274    -0.71000
O48         O  0.47504619  0.06847464  0.64430429    -0.62200
O49         O  0.44700215  0.09931273  0.70400310    -0.74700
O50         O  0.50314013  0.12763818  0.58356699    -0.73500
Cu51       Cu  0.02858505  0.13873394  0.68847744     1.04600
Cu52       Cu  0.47312701  0.11285705  0.64239732     1.04300
C53         C  0.04064389  0.14474032  0.58707814     0.92800
C54         C  0.46279400  0.10638398  0.74392960     0.91900
C55         C  0.00423541  0.06681987  0.66418662     0.84100
C56         C  0.00151996  0.18474467  0.66629357     0.90400
O57         O  0.35058901  0.44825513  0.03835388    -0.73400
O58         O  0.37833435  0.50513599  0.91828489    -0.74400
O59         O  0.40939518  0.47690372  0.97834126    -0.63000
O60         O  0.31827736  0.47606022  0.97881731    -0.71400
O61         O  0.34287825  0.02547730  0.01782159    -0.71000
O62         O  0.43273674  0.02410622  0.01933394    -0.62200
O63         O  0.40348530  0.05376097  0.95948472    -0.74700
O64         O  0.37291442  0.99560832  0.07745151    -0.73500
Cu65       Cu  0.36310943  0.47490483  0.97692004     1.04600
Cu66       Cu  0.38865557  0.02639559  0.02001378     1.04300
C67         C  0.35910178  0.46380577  0.07847276     0.92800
C68         C  0.39650723  0.03869617  0.91905348     0.91900
C69         C  0.43504242  0.99995947  0.99773719     0.84100
C70         C  0.31611795  0.00118105  0.99692866     0.90400
O71         O  0.06493866  0.47116841  0.02111801    -0.73400
O72         O  0.15545062  0.47057577  0.02216561    -0.74400
O73         O  0.12312816  0.49819379  0.08297690    -0.63000
O74         O  0.09596932  0.44346478  0.96122447    -0.71400
O75         O  0.12330225  0.99623496  0.91985463    -0.71000
O76         O  0.15030400  0.05282254  0.04006915    -0.62200
O77         O  0.18263465  0.02457642  0.98099579    -0.74700
O78         O  0.09209422  0.02456505  0.97895878    -0.73500
Cu79       Cu  0.10919411  0.46912741  0.02336316     1.04600
Cu80       Cu  0.13811523  0.02624284  0.97848940     1.04300
C81         C  0.06539929  0.00032216  0.99989301     0.92800
C82         C  0.18423776  0.99956708  0.00106987     0.91900
C83         C  0.14146889  0.03713016  0.08000529     0.84100
C84         C  0.10388440  0.45960711  0.92161819     0.90400
C85         C  0.99864912  0.46448264  0.00093437    -0.26800
C86         C  0.03210772  0.00039699  0.99933242    -0.14800
C87         C  0.03123605  0.03182479  0.99895396     0.35800
C88         C  0.99889249  0.03052825  0.99801242    -0.26200
C89         C  0.46842170  0.99968135  0.99921254    -0.15500
C90         C  0.47091715  0.47072293  0.99969508     0.36900
N91         N  0.43960282  0.43745490  0.00063475    -0.89700
H92         H  0.99907230  0.44027476  0.00306036     0.18000
H93         H  0.49851354  0.05435673  0.01693723     0.18000
N94         N  0.06307221  0.06488965  0.00036017    -0.88700
H95         H  0.44036113  0.42409784  0.03074874     0.35400
H96         H  0.43951859  0.42338801  0.97075791     0.40500
H97         H  0.07510497  0.06667940  0.03302860     0.40100
H98         H  0.05778547  0.08538648  0.99937772     0.35000
C99         C  0.24902601  0.03106292  0.00300584    -0.26800
C100        C  0.21755680  0.99920539  0.00059714    -0.14800
C101        C  0.21827810  0.46531110  0.99725007     0.35800
C102        C  0.25098519  0.46757723  0.99591982    -0.26200
C103        C  0.28257085  0.00118572  0.99767006    -0.15500
C104        C  0.28136197  0.03231343  0.00209132     0.36900
N105        N  0.31286323  0.06536312  0.00478435    -0.89700
H106        H  0.24857511  0.05522803  0.00609251     0.18000
H107        H  0.25206863  0.44378975  0.99209325     0.18000
N108        N  0.18787149  0.43165997  0.99157681    -0.88700
H109        H  0.31243777  0.07747678  0.03643732     0.35400
H110        H  0.31296063  0.08074091  0.97660468     0.40500
H111        H  0.17339512  0.43253526  0.96280819     0.40100
H112        H  0.17277642  0.42556553  0.02233842     0.35000
C113        C  0.45861236  0.10701278  0.83204633    -0.26800
C114        C  0.44288489  0.09190959  0.78844752    -0.14800
C115        C  0.41017757  0.06088006  0.78851936     0.35800
C116        C  0.39459287  0.04505860  0.83166350    -0.26200
C117        C  0.41107223  0.05928927  0.87514539    -0.15500
C118        C  0.44316076  0.09098047  0.87520509     0.36900
N119        N  0.46123562  0.10599561  0.91873192    -0.89700
H120        H  0.48376914  0.13074571  0.83272974     0.18000
H121        H  0.36999624  0.02071201  0.83096208     0.18000
N122        N  0.39352536  0.04412892  0.74495052    -0.88700
H123        H  0.46531345  0.13130815  0.92122405     0.35400
H124        H  0.48564274  0.10762614  0.91715656     0.40500
H125        H  0.36869913  0.04153552  0.74429733     0.40100
H126        H  0.39047862  0.01914722  0.74474271     0.35000
C127        C  0.08751895  0.43692532  0.79058664    -0.26800
C128        C  0.05471287  0.40639693  0.79177818    -0.14800
C129        C  0.04019134  0.39145261  0.83611867     0.35800
C130        C  0.05777260  0.40811467  0.87810085    -0.26200
C131        C  0.08950252  0.43988905  0.87684489    -0.15500
C132        C  0.10483230  0.45382875  0.83249099     0.36900
N133        N  0.13779982  0.48540888  0.82969049    -0.89700
H134        H  0.09922966  0.44874869  0.75690468     0.18000
H135        H  0.04561217  0.39689309  0.91182993     0.18000
N136        N  0.51938130  0.36031407  0.83810884    -0.88700
H137        H  0.13433415  0.50351834  0.81018967     0.35400
H138        H  0.15507409  0.48014030  0.81100067     0.40500
H139        H  0.50060631  0.36134737  0.85949325     0.40100
H140        H  0.52776090  0.34488277  0.85531674     0.35000
C141        C  0.03117595  0.28159202  0.66917056    -0.26800
C142        C  0.99931972  0.28107628  0.66496006    -0.14800
C143        C  0.46519785  0.24949292  0.66959951     0.35800
C144        C  0.46634217  0.21834255  0.66789551    -0.26200
C145        C  0.00135409  0.21819266  0.66600123    -0.15500
C146        C  0.03261283  0.25062408  0.66965503     0.36900
N147        N  0.06580262  0.25215315  0.67301264    -0.89700
H148        H  0.05515671  0.30637569  0.67230581     0.18000
H149        H  0.44213684  0.19367160  0.66988697     0.18000
N150        N  0.43219335  0.24802314  0.67361867    -0.88700
H151        H  0.08607174  0.27793110  0.67626430     0.35400
H152        H  0.06992311  0.24277142  0.64101478     0.40500
H153        H  0.42012932  0.23455931  0.70475176     0.40100
H154        H  0.41663486  0.23367581  0.64493366     0.35000
C155        C  0.46754381  0.00202205  0.67183452    -0.26800
C156        C  0.00438183  0.03350955  0.66426509    -0.14800
C157        C  0.03579041  0.03247955  0.66515291     0.35800
C158        C  0.03438679  0.00008540  0.66604753    -0.26200
C159        C  0.00141420  0.46840398  0.66336323    -0.15500
C160        C  0.47003131  0.47156818  0.67168057     0.36900
N161        N  0.43675776  0.43994594  0.67233169    -0.89700
H162        H  0.44353023  0.00281140  0.67528043     0.18000
H163        H  0.05849048  0.99931054  0.66697142     0.18000
N164        N  0.06895281  0.06422152  0.66442221    -0.88700
H165        H  0.43414919  0.42695515  0.64026229     0.35400
H166        H  0.41637774  0.44546978  0.67348484     0.40500
H167        H  0.07099859  0.07642898  0.63189395     0.40100
H168        H  0.08944109  0.05886061  0.66560439     0.35000
C169        C  0.06614607  0.15407677  0.45712441    -0.26800
C170        C  0.09670393  0.15177216  0.45914451    -0.14800
C171        C  0.11112282  0.15210026  0.50424546     0.35800
C172        C  0.09364231  0.15244623  0.54547195    -0.26200
C173        C  0.06154441  0.15168780  0.54318483    -0.15500
C174        C  0.04840432  0.15376824  0.49849431     0.36900
N175        N  0.51232489  0.15179763  0.49222943    -0.89700
H176        H  0.05482142  0.15436171  0.42314481     0.18000
H177        H  0.10432814  0.15122840  0.57955735     0.18000
N178        N  0.14319946  0.15182045  0.50966294    -0.88700
H179        H  0.50631291  0.15258662  0.45652999     0.35400
H180        H  0.51617971  0.17494772  0.50762418     0.40500
H181        H  0.16255450  0.17223990  0.48979730     0.40100
H182        H  0.13985145  0.12809285  0.49733754     0.35000
C183        C  0.15114426  0.09093779  0.12226928    -0.26800
C184        C  0.14724809  0.05742276  0.12450882    -0.14800
C185        C  0.14585745  0.04276807  0.16943995     0.35800
C186        C  0.14657730  0.06079653  0.21070094    -0.26200
C187        C  0.14818350  0.09321496  0.20843685    -0.15500
C188        C  0.15156895  0.10896591  0.16374177     0.36900
N189        N  0.15498497  0.14291839  0.16057352    -0.89700
H190        H  0.15248544  0.10260036  0.08801130     0.18000
H191        H  0.14419732  0.04845537  0.24474467     0.18000
N192        N  0.14313516  0.00927370  0.17354451    -0.88700
H193        H  0.15697882  0.15067515  0.12513563     0.35400
H194        H  0.17850316  0.16059412  0.17693372     0.40500
H195        H  0.11485949  0.48721601  0.19517821     0.40100
H196        H  0.15881396  0.50543391  0.19647326     0.35000
C197        C  0.43228993  0.34981853  0.46323315    -0.26800
C198        C  0.40608037  0.35903001  0.46484261    -0.14800
C199        C  0.39495675  0.36417851  0.50993868     0.35800
C200        C  0.41131719  0.36184161  0.55114717    -0.26200
C201        C  0.43921412  0.35530805  0.54890309    -0.15500
C202        C  0.44902684  0.34805960  0.50465255     0.36900
N203        N  0.99375760  0.35601239  0.49021849    -0.89700
H204        H  0.44081428  0.34520782  0.42933324     0.18000
H205        H  0.40346163  0.36726820  0.58507081     0.18000
N206        N  0.36769538  0.37244775  0.51545874    -0.88700
H207        H  0.00069650  0.35668710  0.45460419     0.35400
H208        H  0.98972614  0.33236236  0.50391167     0.40500
H209        H  0.34523896  0.35334357  0.49841444     0.40100
H210        H  0.37562278  0.39680734  0.50036403     0.35000
C211        C  0.00297495  0.03713589  0.33749010    -0.26800
C212        C  0.03426745  0.03620903  0.33645781    -0.14800
C213        C  0.03293447  0.00367635  0.33636062     0.35800
C214        C  0.00024089  0.47187958  0.33931387    -0.26200
C215        C  0.46736480  0.47434371  0.33787838    -0.15500
C216        C  0.47093536  0.00530467  0.32990540     0.36900
N217        N  0.43928613  0.00683728  0.32636917    -0.89700
H218        H  0.00368916  0.06195077  0.33796847     0.18000
H219        H  0.99921066  0.44693119  0.34053944     0.18000
N220        N  0.06453798  0.00192364  0.33518808    -0.88700
H221        H  0.42781033  0.99607358  0.29362774     0.35400
H222        H  0.43718861  0.52408299  0.35741633     0.40500
H223        H  0.07674436  0.01212496  0.30266211     0.40100
H224        H  0.05870357  0.47508523  0.34456167     0.35000
C225        C  0.21949818  0.25228163  0.33266898    -0.26800
C226        C  0.22097923  0.22134893  0.33307102    -0.14800
C227        C  0.25379204  0.22333108  0.33455865     0.35800
C228        C  0.28433982  0.25599038  0.33538337    -0.26200
C229        C  0.28286674  0.28693758  0.33545769    -0.15500
C230        C  0.25002849  0.28504615  0.33397356     0.36900
N231        N  0.24771820  0.31628642  0.33307087    -0.89700
H232        H  0.19434546  0.25091393  0.33170606     0.18000
H233        H  0.30937690  0.25709301  0.33645570     0.18000
N234        N  0.25632037  0.19232995  0.33438519    -0.88700
H235        H  0.22165791  0.31027612  0.33271770     0.35400
H236        H  0.25870335  0.32909508  0.30113612     0.40500
H237        H  0.26990853  0.19250899  0.36483389     0.40100
H238        H  0.27102749  0.19317747  0.30483131     0.35000
C239        C  0.35395822  0.39704108  0.16797613    -0.26800
C240        C  0.35311054  0.41270103  0.21093322    -0.14800
C241        C  0.35074688  0.44332581  0.20961232     0.35800
C242        C  0.35082939  0.45839581  0.16589936    -0.26200
C243        C  0.35348075  0.44379128  0.12297802    -0.15500
C244        C  0.35444554  0.41232625  0.12402830     0.36900
N245        N  0.35779205  0.39693082  0.08083858    -0.89700
H246        H  0.35571082  0.37350766  0.16869959     0.18000
H247        H  0.35005546  0.48246567  0.16570525     0.18000
N248        N  0.35019785  0.46041807  0.25253349    -0.88700
H249        H  0.35755110  0.37363568  0.08785731     0.35400
H250        H  0.38234422  0.41396347  0.06658804     0.40500
H251        H  0.32761943  0.46242033  0.25245228     0.40100
H252        H  0.37179109  0.48562549  0.25243574     0.35000
O253        O  0.37766526  0.87907098  0.41275185    -0.73400
O254        O  0.35098577  0.90475797  0.28976201    -0.74400
O255        O  0.31883329  0.84582272  0.35045302    -0.63000
O256        O  0.40912940  0.93734423  0.35096851    -0.71400
O257        O  0.43469201  0.91256886  0.31214706    -0.71000
O258        O  0.34468592  0.82126774  0.31186332    -0.62200
O259        O  0.37642869  0.88027926  0.25020407    -0.74700
O260        O  0.40350295  0.85469981  0.37408045    -0.73500
Cu261      Cu  0.36313870  0.89241911  0.35238541     1.04600
Cu262      Cu  0.39057048  0.86620257  0.31069949     1.04300
C263        C  0.39559721  0.86371095  0.41323957     0.92800
C264        C  0.36037488  0.89762223  0.25047175     0.91900
C265        C  0.31739088  0.81912903  0.33069006     0.84100
C266        C  0.43617986  0.93941303  0.33138054     0.90400
O267        O  0.12830473  0.63149296  0.41467567    -0.73400
O268        O  0.15090630  0.59814499  0.29415644    -0.74400
O269        O  0.18611537  0.66007039  0.35074234    -0.63000
O270        O  0.09447468  0.57074912  0.35812630    -0.71400
O271        O  0.06953662  0.59453734  0.31576534    -0.71000
O272        O  0.16075649  0.68436466  0.31050568    -0.62200
O273        O  0.12684234  0.62315559  0.25259265    -0.74700
O274        O  0.10252107  0.65461431  0.37294884    -0.73500
Cu275      Cu  0.14102989  0.61448436  0.35588091     1.04600
Cu276      Cu  0.11425435  0.64016853  0.31146806     1.04300
C277        C  0.11055074  0.64703568  0.41297603     0.92800
C278        C  0.14144024  0.60450483  0.25430569     0.91900
C279        C  0.18790766  0.68652154  0.32989609     0.84100
C280        C  0.06760500  0.56840263  0.33767622     0.90400
O281        O  0.02723235  0.93326171  0.64723164    -0.73400
O282        O  0.02627485  0.84209611  0.64669266    -0.74400
O283        O  0.00020416  0.87527753  0.58525996    -0.63000
O284        O  0.05317774  0.90106357  0.70843403    -0.74400
O285        O  0.49998312  0.87571570  0.75072532    -0.71000
O286        O  0.44544763  0.85054562  0.62827667    -0.62200
O287        O  0.47250895  0.81701912  0.68717875    -0.74700
O288        O  0.47274575  0.90803806  0.69075502    -0.73500
Cu289      Cu  0.02847190  0.88859005  0.64554700     1.04600
Cu290      Cu  0.47095843  0.86174845  0.69072902     1.04300
C291        C  0.00228347  0.93530898  0.66693223     0.92800
C292        C  0.00076865  0.81522066  0.66563853     0.91900
C293        C  0.46165948  0.85940151  0.58866248     0.84100
C294        C  0.03662282  0.89354673  0.74778211     0.90400
O295        O  0.05458457  0.65283766  0.62470778    -0.73400
O296        O  0.99639970  0.62057402  0.74308246    -0.74400
O297        O  0.02674579  0.59250472  0.68175795    -0.63000
O298        O  0.02500952  0.68199773  0.68572359    -0.71400
O299        O  0.47610098  0.65904976  0.64476908    -0.71000
O300        O  0.47856729  0.56973257  0.64695828    -0.62200
O301        O  0.44918773  0.59976205  0.70589484    -0.74700
O302        O  0.50540898  0.62803488  0.58547068    -0.73500
Cu303      Cu  0.02732234  0.63795866  0.68540221     1.04600
Cu304      Cu  0.47564756  0.61341754  0.64430106     1.04300
C305        C  0.03944789  0.64548760  0.58428277     0.92800
C306        C  0.46484641  0.60710128  0.74592034     0.91900
C307        C  0.00287212  0.56623719  0.65956137     0.84100
C308        C  0.00060633  0.68428444  0.66482965     0.90400
O309        O  0.34969815  0.94733959  0.03404060    -0.73400
O310        O  0.37813912  0.00551072  0.91618764    -0.74400
O311        O  0.40881373  0.97633163  0.97508024    -0.63000
O312        O  0.31801168  0.97656983  0.97589935    -0.71400
O313        O  0.34256280  0.52518404  0.02023971    -0.71000
O314        O  0.43341144  0.52548076  0.02112191    -0.62200
O315        O  0.40306286  0.55366890  0.96108171    -0.74700
O316        O  0.37402054  0.49702959  0.08053814    -0.73500
Cu317      Cu  0.36263477  0.97478909  0.97369221     1.04600
Cu318      Cu  0.38887805  0.52699871  0.02222250     1.04300
C319        C  0.35802625  0.96242546  0.07442757     0.92800
C320        C  0.39661090  0.53837865  0.92083004     0.91900
C321        C  0.43576003  0.50124436  0.99985405     0.84100
C322        C  0.31594666  0.50050210  0.99954115     0.90400
O323        O  0.06717129  0.97581716  0.02114553    -0.73400
O324        O  0.15738479  0.97515922  0.02152554    -0.74400
O325        O  0.12601152  0.00386194  0.08153626    -0.63000
O326        O  0.09758226  0.94736340  0.96159630    -0.71400
O327        O  0.12228835  0.49285434  0.92067475    -0.71000
O328        O  0.14733685  0.54751924  0.04234953    -0.62200
O329        O  0.18072779  0.52064743  0.98313824    -0.74700
O330        O  0.09028179  0.52012715  0.97947438    -0.73500
Cu331      Cu  0.11138029  0.97389833  0.02297649     1.04600
Cu332      Cu  0.13620513  0.52196266  0.98002202     1.04300
C333        C  0.06338871  0.49583702  0.99990190     0.92800
C334        C  0.18243147  0.49553472  0.00260993     0.91900
C335        C  0.13824284  0.53145965  0.08203156     0.84100
C336        C  0.10513161  0.96298230  0.92161093     0.90400
C337        C  0.00068835  0.96844112  0.99921808    -0.26800
C338        C  0.03022378  0.49622559  0.99889918    -0.14800
C339        C  0.02964651  0.52777743  0.99606660     0.35800
C340        C  0.99747199  0.52679488  0.99535433    -0.26200
C341        C  0.46940560  0.50174711  0.99980053    -0.15500
C342        C  0.46994436  0.96902148  0.99083917     0.36900
N343        N  0.43892060  0.93661904  0.98093471    -0.89700
H344        H  0.00111010  0.94418776  0.99960145     0.18000
H345        H  0.49949734  0.55783401  0.00011171     0.18000
N346        N  0.06162680  0.56071038  0.99460631    -0.88700
H347        H  0.43649039  0.91860715  0.00673548     0.35400
H348        H  0.44204525  0.92760049  0.94801858     0.40500
H349        H  0.07434942  0.56397124  0.02707806     0.40100
H350        H  0.05651179  0.58127006  0.99170889     0.35000
C351        C  0.24714879  0.52822404  0.00574175    -0.26800
C352        C  0.21614727  0.49596087  0.00252226    -0.14800
C353        C  0.21879327  0.96797104  0.99637689     0.35800
C354        C  0.25110087  0.96936161  0.99441893    -0.26200
C355        C  0.28201750  0.49977987  0.99997603    -0.15500
C356        C  0.28002631  0.53053561  0.00445253     0.36900
N357        N  0.31127708  0.56404490  0.00676048    -0.89700
H358        H  0.24571987  0.55184558  0.00925131     0.18000
H359        H  0.25152974  0.94520302  0.99109507     0.18000
N360        N  0.18783989  0.93452810  0.99273649    -0.88700
H361        H  0.30518450  0.58389698  0.01052639     0.35400
H362        H  0.32410162  0.56822647  0.97420864     0.40500
H363        H  0.17283548  0.93497004  0.96437171     0.40100
H364        H  0.17357672  0.92952668  0.02415011     0.35000
C365        C  0.46197635  0.60485617  0.83444896    -0.26800
C366        C  0.44476665  0.59256533  0.79075915    -0.14800
C367        C  0.41006391  0.56423760  0.79090260     0.35800
C368        C  0.39432735  0.54771887  0.83383812    -0.26200
C369        C  0.41222689  0.55906161  0.87711551    -0.15500
C370        C  0.44629762  0.58837264  0.87744587     0.36900
N371        N  0.46566773  0.60025422  0.92106086    -0.89700
H372        H  0.48846354  0.62661806  0.83501020     0.18000
H373        H  0.36815812  0.52537229  0.83315813     0.18000
N374        N  0.39097429  0.55121790  0.74752466    -0.88700
H375        H  0.49004905  0.62235035  0.91526308     0.35400
H376        H  0.47055658  0.58073151  0.93289219     0.40500
H377        H  0.36806835  0.55253370  0.75010320     0.40100
H378        H  0.38394979  0.52500931  0.74409225     0.35000
C379        C  0.08916416  0.93796071  0.79118190    -0.26800
C380        C  0.05621794  0.90759597  0.79280403    -0.14800
C381        C  0.04149795  0.89352760  0.83745089     0.35800
C382        C  0.05897385  0.91090618  0.87914608    -0.26200
C383        C  0.09075494  0.94258335  0.87732287    -0.15500
C384        C  0.10631601  0.95563601  0.83280346     0.36900
N385        N  0.13933931  0.98711365  0.82953694    -0.89700
H386        H  0.10106010  0.94913443  0.75731686     0.18000
H387        H  0.04667057  0.90035029  0.91304185     0.18000
N388        N  0.50731416  0.86268747  0.84362957    -0.88700
H389        H  0.13602982  0.00487452  0.80895653     0.35400
H390        H  0.15668005  0.98145525  0.81177411     0.40500
H391        H  0.49042702  0.86769702  0.86373856     0.40100
H392        H  0.51168147  0.84483885  0.86230963     0.35000
C393        C  0.03187396  0.78131356  0.66251788    -0.26800
C394        C  0.00020367  0.78143452  0.66495733    -0.14800
C395        C  0.46682748  0.74972341  0.66272953     0.35800
C396        C  0.46831568  0.71879858  0.66183612    -0.26200
C397        C  0.00094229  0.71786763  0.66484371    -0.15500
C398        C  0.03251174  0.74994973  0.66268161     0.36900
N399        N  0.06527323  0.75082173  0.65941237    -0.89700
H400        H  0.05638190  0.80570951  0.66092691     0.18000
H401        H  0.44413872  0.69406114  0.66057570     0.18000
N402        N  0.43367066  0.74801961  0.65983421    -0.88700
H403        H  0.08079827  0.76533804  0.68804007     0.35400
H404        H  0.07762243  0.76382503  0.62815950     0.40500
H405        H  0.41834835  0.73303826  0.68822913     0.40100
H406        H  0.42150099  0.73511344  0.62836834     0.35000
C407        C  0.47158258  0.50396800  0.67090177    -0.26800
C408        C  0.00302888  0.53297125  0.65955091    -0.14800
C409        C  0.03441447  0.53203422  0.65688455     0.35800
C410        C  0.03325502  0.49976232  0.65873103    -0.26200
C411        C  0.00232513  0.96873439  0.66606948    -0.15500
C412        C  0.46618904  0.96970716  0.67375968     0.36900
N413        N  0.43314815  0.93851091  0.67926431    -0.89700
H414        H  0.44753840  0.50486387  0.67171728     0.18000
H415        H  0.05740980  0.49913655  0.65683480     0.18000
N416        N  0.06727454  0.56376796  0.65176012    -0.88700
H417        H  0.41700224  0.93704496  0.65120662     0.35400
H418        H  0.42187841  0.94052681  0.71086459     0.40500
H419        H  0.06702410  0.57464313  0.61893702     0.40100
H420        H  0.08785420  0.55855951  0.65061888     0.35000
C421        C  0.06441685  0.65316036  0.45427603    -0.26800
C422        C  0.09637674  0.65357256  0.45710230    -0.14800
C423        C  0.11191185  0.65714172  0.50222763     0.35800
C424        C  0.09400488  0.65729390  0.54306056    -0.26200
C425        C  0.06050146  0.65338600  0.54032546    -0.15500
C426        C  0.04635980  0.65313284  0.49528455     0.36900
N427        N  0.51110318  0.64877995  0.49408629    -0.89700
H428        H  0.05252044  0.65112171  0.41993318     0.18000
H429        H  0.10562705  0.65837668  0.57732738     0.18000
N430        N  0.14563311  0.66046712  0.50799989    -0.88700
H431        H  0.50378758  0.64811719  0.45866840     0.35400
H432        H  0.51411205  0.67187687  0.50857281     0.40500
H433        H  0.16347854  0.68095579  0.48670347     0.40100
H434        H  0.14451282  0.63734071  0.49739039     0.35000
C435        C  0.14774737  0.58516772  0.12409731    -0.26800
C436        C  0.14343569  0.55151690  0.12671239    -0.14800
C437        C  0.14150794  0.53690358  0.17188714     0.35800
C438        C  0.14278291  0.55547729  0.21299357    -0.26200
C439        C  0.14537959  0.58835244  0.21024245    -0.15500
C440        C  0.14860514  0.60364978  0.16523637     0.36900
N441        N  0.15234330  0.63770759  0.16138295    -0.89700
H442        H  0.14926214  0.59672986  0.08970999     0.18000
H443        H  0.14020603  0.54335139  0.24726110     0.18000
N444        N  0.13783192  0.50302880  0.17639222    -0.88700
H445        H  0.15400455  0.64504625  0.12580462     0.35400
H446        H  0.17609019  0.65542927  0.17718828     0.40500
H447        H  0.12031754  0.99293261  0.19230895     0.40100
H448        H  0.16437578  0.01216650  0.19347001     0.35000
C449        C  0.43778039  0.85250570  0.45779720    -0.26800
C450        C  0.40906095  0.85802594  0.45899080    -0.14800
C451        C  0.39561305  0.86000567  0.50396599     0.35800
C452        C  0.41182665  0.85793346  0.54557313    -0.26200
C453        C  0.44192137  0.85487460  0.54405573    -0.15500
C454        C  0.45437283  0.85121470  0.49965558     0.36900
N455        N  0.99418377  0.85765900  0.49157881    -0.89700
H456        H  0.44842694  0.85049944  0.42408424     0.18000
H457        H  0.40182527  0.86069411  0.57943531     0.18000
N458        N  0.36584082  0.86447188  0.50898079    -0.88700
H459        H  0.00125988  0.85889041  0.45591870     0.35400
H460        H  0.99046005  0.83396824  0.50463052     0.40500
H461        H  0.34501031  0.84483445  0.48990936     0.40100
H462        H  0.37190158  0.88885272  0.49564769     0.35000
C463        C  0.00276768  0.53607764  0.33636258    -0.26800
C464        C  0.03405006  0.53520962  0.33874916    -0.14800
C465        C  0.03275638  0.50268993  0.34057825     0.35800
C466        C  0.00038664  0.97289192  0.33654172    -0.26200
C467        C  0.46969149  0.97283364  0.33139405    -0.15500
C468        C  0.46887786  0.50674790  0.33361248     0.36900
N469        N  0.43749449  0.50851326  0.32971135    -0.89700
H470        H  0.00341288  0.56084478  0.33510391     0.18000
H471        H  0.99943837  0.94797412  0.33615288     0.18000
N472        N  0.06435286  0.50095604  0.34255257    -0.88700
H473        H  0.43830770  0.52079463  0.29770519     0.35400
H474        H  0.44479211  0.03270460  0.32601263     0.40500
H475        H  0.07764251  0.51084572  0.31057696     0.40100
H476        H  0.05894278  0.97604382  0.33609788     0.35000
C477        C  0.22047626  0.75141445  0.32699129    -0.26800
C478        C  0.22132934  0.72016030  0.32897578    -0.14800
C479        C  0.25396093  0.72170235  0.33054977     0.35800
C480        C  0.28487444  0.75416435  0.33053223    -0.26200
C481        C  0.28402607  0.78543889  0.32960221    -0.15500
C482        C  0.25138711  0.78399412  0.32734475     0.36900
N483        N  0.24968097  0.81552221  0.32474312    -0.89700
H484        H  0.19552248  0.75045993  0.32566230     0.18000
H485        H  0.30971160  0.75486298  0.33191793     0.18000
N486        N  0.25593041  0.69040183  0.33137558    -0.88700
H487        H  0.22373713  0.80990363  0.32382159     0.35400
H488        H  0.26091657  0.82762441  0.29254015     0.40500
H489        H  0.26960082  0.69083242  0.36185971     0.40100
H490        H  0.27032259  0.69052872  0.30184782     0.35000
C491        C  0.35865048  0.89784458  0.16187131    -0.26800
C492        C  0.35425203  0.91096485  0.20518256    -0.14800
C493        C  0.34724049  0.93884580  0.20431055     0.35800
C494        C  0.34654284  0.95394535  0.16094054    -0.26200
C495        C  0.35260578  0.94186844  0.11804176    -0.15500
C496        C  0.35793199  0.91301819  0.11850245     0.36900
N497        N  0.36478479  0.90036931  0.07534356    -0.89700
H498        H  0.36395753  0.87646634  0.16160831     0.18000
H499        H  0.34242240  0.97610031  0.16101267     0.18000
N500        N  0.34243892  0.95315910  0.24736372    -0.88700
H501        H  0.34612685  0.87397372  0.07193109     0.35400
H502        H  0.38932687  0.90243844  0.07823541     0.40500
H503        H  0.31802651  0.95151829  0.24586396     0.40100
H504        H  0.36155392  0.97950576  0.24895815     0.35000
O505        O  0.87879102  0.37786698  0.41343579    -0.73400
O506        O  0.85056739  0.40622850  0.29373978    -0.74400
O507        O  0.81937777  0.34595888  0.35264011    -0.63000
O508        O  0.90874730  0.43715477  0.35481569    -0.71400
O509        O  0.93417438  0.41361913  0.31273580    -0.71000
O510        O  0.84478477  0.32183874  0.31191498    -0.62200
O511        O  0.87509495  0.38174803  0.25183047    -0.74700
O512        O  0.90470350  0.35480954  0.37181306    -0.73500
Cu513      Cu  0.86329277  0.39239445  0.35511113     1.04600
Cu514      Cu  0.89039720  0.36703525  0.31049443     1.04300
C515        C  0.89732533  0.36315462  0.41179816     0.92800
C516        C  0.85942400  0.39940656  0.25375502     0.91900
C517        C  0.81781454  0.31948079  0.33213261     0.84100
C518        C  0.93567887  0.43971498  0.33436992     0.90400
O519        O  0.62674988  0.12949947  0.41596575    -0.73400
O520        O  0.65349926  0.10120628  0.29452326    -0.74400
O521        O  0.68632272  0.16064613  0.35501875    -0.63000
O522        O  0.59492300  0.07062835  0.35515974    -0.71400
O523        O  0.57062814  0.09561061  0.31402745    -0.71000
O524        O  0.66160443  0.18567911  0.31496796    -0.62200
O525        O  0.62964918  0.12670826  0.25362967    -0.74700
O526        O  0.60198645  0.15396706  0.37496682    -0.73500
Cu527      Cu  0.64138012  0.11480145  0.35666096     1.04600
Cu528      Cu  0.61530784  0.14151871  0.31299477     1.04300
C529        C  0.60909357  0.14515982  0.41475884     0.92800
C530        C  0.64495588  0.10871054  0.25478050     0.91900
C531        C  0.68842722  0.18742479  0.33479922     0.84100
C532        C  0.56840189  0.06876972  0.33422813     0.90400
O533        O  0.52425218  0.43387787  0.64789891    -0.73400
O534        O  0.52176075  0.34207140  0.64693208    -0.74400
O535        O  0.49329542  0.37427587  0.58871908    -0.63000
O536        O  0.55280571  0.40261445  0.70560304    -0.74400
O537        O  0.00188020  0.37528831  0.74676695    -0.71000
O538        O  0.94994564  0.35102759  0.62325906    -0.62200
O539        O  0.97449726  0.31676125  0.68412926    -0.74700
O540        O  0.97674207  0.40844938  0.68527580    -0.73500
Cu541      Cu  0.52465900  0.38880133  0.64571944     1.04600
Cu542      Cu  0.97405810  0.36188490  0.68624934     1.04300
C543        C  0.50089757  0.43677587  0.67082681     0.92800
C544        C  0.49689056  0.31557401  0.66748675     0.91900
C545        C  0.96665836  0.36006185  0.58405328     0.84100
C546        C  0.53823538  0.39558714  0.74632721     0.90400
O547        O  0.55197943  0.15205303  0.62578343    -0.73400
O548        O  0.49608414  0.12451318  0.74565578    -0.74400
O549        O  0.52424807  0.09339894  0.68590574    -0.63000
O550        O  0.52351975  0.18373046  0.68493773    -0.71400
O551        O  0.97718563  0.15807317  0.64521081    -0.71000
O552        O  0.97991535  0.06879641  0.64243360    -0.62200
O553        O  0.94974574  0.09704793  0.70254808    -0.74700
O554        O  0.00736130  0.12892004  0.58444677    -0.73500
Cu555      Cu  0.52562405  0.13944131  0.68700534     1.04600
Cu556      Cu  0.97690044  0.11254083  0.64216136     1.04300
C557        C  0.53650600  0.14347625  0.58566473     0.92800
C558        C  0.96461201  0.10342477  0.74303534     0.91900
C559        C  0.49966162  0.06662431  0.66536402     0.84100
C560        C  0.49868287  0.18556004  0.66447433     0.90400
O561        O  0.84730940  0.44646391  0.03644890    -0.73400
O562        O  0.87693084  0.49968913  0.91373460    -0.74400
O563        O  0.90591609  0.47115629  0.97655141    -0.63000
O564        O  0.81726994  0.47501562  0.97336027    -0.71400
O565        O  0.84321677  0.02538726  0.01753933    -0.71000
O566        O  0.93278600  0.02390778  0.01698020    -0.62200
O567        O  0.90209298  0.05136534  0.95653262    -0.74700
O568        O  0.87486909  0.99771998  0.07830889    -0.73500
Cu569      Cu  0.86075228  0.47133926  0.97364428     1.04600
Cu570      Cu  0.88890713  0.02627628  0.01873787     1.04300
C571        C  0.85719594  0.46293247  0.07581695     0.92800
C572        C  0.89510291  0.03518866  0.91695200     0.91900
C573        C  0.93423076  0.99871579  0.99718778     0.84100
C574        C  0.81618335  0.00092966  0.99737065     0.90400
O575        O  0.57016609  0.47989736  0.01847121    -0.73400
O576        O  0.66023982  0.47900831  0.01550726    -0.74400
O577        O  0.62939853  0.50693974  0.07823206    -0.63000
O578        O  0.60054511  0.45219249  0.95689192    -0.71400
O579        O  0.62312467  0.99742146  0.92114090    -0.71000
O580        O  0.65192517  0.05383210  0.04161225    -0.62200
O581        O  0.68330310  0.02546078  0.98109286    -0.74700
O582        O  0.59288436  0.02596424  0.98214889    -0.73500
Cu583      Cu  0.61441816  0.47786893  0.01875851     1.04600
Cu584      Cu  0.63884304  0.02735813  0.98001127     1.04300
C585        C  0.56630962  0.00138258  0.00286988     0.92800
C586        C  0.68503181  0.00046557  0.00098610     0.91900
C587        C  0.64329429  0.03815464  0.08155858     0.84100
C588        C  0.60792444  0.46804663  0.91709849     0.90400
C589        C  0.50338012  0.47237143  0.99967731    -0.26800
C590        C  0.53298752  0.00125190  0.00274886    -0.14800
C591        C  0.53167425  0.03183779  0.01195240     0.35800
C592        C  0.49939809  0.03074169  0.01008588    -0.26200
C593        C  0.96748780  0.99856412  0.99744345    -0.15500
C594        C  0.96646542  0.46354843  0.00021989     0.36900
N595        N  0.93446639  0.43082100  0.00366525    -0.89700
H596        H  0.50411387  0.44827857  0.99949909     0.18000
H597        H  0.99821056  0.05464082  0.99761301     0.18000
N598        N  0.56300415  0.06370341  0.02383835    -0.88700
H599        H  0.92319016  0.43072549  0.03629294     0.35400
H600        H  0.93945425  0.41012258  0.00459792     0.40500
H601        H  0.57229341  0.05977100  0.05603917     0.40100
H602        H  0.55753082  0.08379740  0.02962239     0.35000
C603        C  0.74967143  0.03146820  0.00554327    -0.26800
C604        C  0.71820400  0.99997766  0.99992721    -0.14800
C605        C  0.72003873  0.47125991  0.98246879     0.35800
C606        C  0.75181744  0.47160613  0.98174737    -0.26200
C607        C  0.78287655  0.00138408  0.99768769    -0.15500
C608        C  0.78186492  0.03243326  0.00489425     0.36900
N609        N  0.81340355  0.06513166  0.01083177    -0.89700
H610        H  0.74929089  0.05549858  0.01105177     0.18000
H611        H  0.75152089  0.44734568  0.97522573     0.18000
N612        N  0.68881854  0.43905953  0.97233176    -0.88700
H613        H  0.81218912  0.07564712  0.04354807     0.35400
H614        H  0.81444047  0.08199430  0.98416467     0.40500
H615        H  0.67589657  0.44299967  0.94401701     0.40100
H616        H  0.67269297  0.43139939  0.00217130     0.35000
C617        C  0.95377715  0.10568192  0.82917454    -0.26800
C618        C  0.94352255  0.08740873  0.78612968    -0.14800
C619        C  0.91533818  0.05273111  0.78570549     0.35800
C620        C  0.89895932  0.03683821  0.82860460    -0.26200
C621        C  0.90987663  0.05472770  0.87204681    -0.15500
C622        C  0.93716425  0.08987267  0.87189968     0.36900
N623        N  0.94911580  0.10938756  0.91513110    -0.89700
H624        H  0.97537236  0.13225638  0.82985248     0.18000
H625        H  0.87811039  0.00992553  0.82812150     0.18000
N626        N  0.90485244  0.03295388  0.74230968    -0.88700
H627        H  0.94669011  0.13158779  0.91187199     0.35400
H628        H  0.97559876  0.11748441  0.91925368     0.40500
H629        H  0.89260061  0.04310304  0.72123567     0.40100
H630        H  0.88603439  0.00701798  0.74890971     0.35000
C631        C  0.58998470  0.44358644  0.78644686    -0.26800
C632        C  0.55979166  0.41063860  0.78939342    -0.14800
C633        C  0.54863302  0.39487105  0.83414855     0.35800
C634        C  0.56600869  0.41329743  0.87522724    -0.26200
C635        C  0.59436041  0.44755657  0.87262214    -0.15500
C636        C  0.60723319  0.46218498  0.82752472     0.36900
N637        N  0.63741087  0.49610798  0.82311631    -0.89700
H638        H  0.59919363  0.45591255  0.75220743     0.18000
H639        H  0.55611837  0.40119263  0.90940011     0.18000
N640        N  0.00745343  0.35960271  0.83881470    -0.88700
H641        H  0.63028574  0.51185752  0.80412705     0.35400
H642        H  0.65610015  0.49374315  0.80326136     0.40500
H643        H  0.99018806  0.36430510  0.85850737     0.40100
H644        H  0.01140477  0.34139889  0.85727741     0.35000
C645        C  0.52831888  0.28221192  0.66303485    -0.26800
C646        C  0.49648111  0.28186802  0.66673869    -0.14800
C647        C  0.96808261  0.24876211  0.66068024     0.35800
C648        C  0.96945558  0.21769837  0.66131898    -0.26200
C649        C  0.49830098  0.21882933  0.66482739    -0.15500
C650        C  0.52951881  0.25117257  0.66266026     0.36900
N651        N  0.56256186  0.25267640  0.65924200    -0.89700
H652        H  0.55261427  0.30679364  0.66109370     0.18000
H653        H  0.94544049  0.19294362  0.65824425     0.18000
N654        N  0.93520132  0.24758210  0.65482377    -0.88700
H655        H  0.57786632  0.26708898  0.68809652     0.35400
H656        H  0.57486305  0.26607421  0.62820125     0.40500
H657        H  0.91477671  0.22181068  0.65247808     0.40100
H658        H  0.93595527  0.25931008  0.62233307     0.35000
C659        C  0.97234581  0.00217581  0.66371162    -0.26800
C660        C  0.49941862  0.03312640  0.66630427    -0.14800
C661        C  0.53052569  0.03179656  0.66193826     0.35800
C662        C  0.52905853  0.99937199  0.66333924    -0.26200
C663        C  0.50133584  0.47035001  0.67079731    -0.15500
C664        C  0.96997109  0.46944520  0.66563254     0.36900
N665        N  0.93687097  0.43782694  0.66947058    -0.89700
H666        H  0.94824103  0.00295827  0.66296815     0.18000
H667        H  0.55300468  0.99848316  0.65986407     0.18000
N668        N  0.56339870  0.06327478  0.65532580    -0.88700
H669        H  0.93290347  0.42376351  0.63800671     0.35400
H670        H  0.91649552  0.44328749  0.67183756     0.40500
H671        H  0.56240860  0.07390566  0.62264641     0.40100
H672        H  0.58376147  0.05778273  0.65303602     0.35000
C673        C  0.56299963  0.15172959  0.45585892    -0.26800
C674        C  0.59423192  0.15068614  0.45906862    -0.14800
C675        C  0.60850848  0.15215013  0.50458199     0.35800
C676        C  0.59017157  0.15198160  0.54512824    -0.26200
C677        C  0.55748532  0.14995758  0.54183269    -0.15500
C678        C  0.54448350  0.15133628  0.49664419     0.36900
N679        N  0.01676994  0.15508149  0.49480362    -0.89700
H680        H  0.55207017  0.15130340  0.42129518     0.18000
H681        H  0.60089241  0.15165952  0.57958199     0.18000
N682        N  0.64145999  0.15384103  0.51106550    -0.88700
H683        H  0.99906253  0.13388026  0.47427140     0.35400
H684        H  0.02235679  0.17790165  0.47678897     0.40500
H685        H  0.66032850  0.17465231  0.49119509     0.40100
H686        H  0.63959361  0.13061170  0.49928484     0.35000
C687        C  0.65150168  0.09131424  0.12384217    -0.26800
C688        C  0.64942140  0.05859477  0.12598810    -0.14800
C689        C  0.65004706  0.04478378  0.17079294     0.35800
C690        C  0.65092056  0.06279560  0.21221224    -0.26200
C691        C  0.65054176  0.09428151  0.21016505    -0.15500
C692        C  0.65195304  0.10925892  0.16538039     0.36900
N693        N  0.65315827  0.14223172  0.16215749    -0.89700
H694        H  0.65122340  0.10228848  0.08962768     0.18000
H695        H  0.65006855  0.05103245  0.24623532     0.18000
N696        N  0.64918787  0.01213156  0.17458827    -0.88700
H697        H  0.65362734  0.14935466  0.12668107     0.35400
H698        H  0.67670819  0.16106300  0.17725763     0.40500
H699        H  0.62593933  0.49529222  0.18902623     0.40100
H700        H  0.67008621  0.51661563  0.19057770     0.35000
C701        C  0.94365626  0.35688986  0.45316303    -0.26800
C702        C  0.91232198  0.35780165  0.45604938    -0.14800
C703        C  0.89764435  0.35595824  0.50135876     0.35800
C704        C  0.91493333  0.35453756  0.54199317    -0.26200
C705        C  0.94722649  0.35574563  0.53929653    -0.15500
C706        C  0.96136073  0.35605657  0.49422570     0.36900
N707        N  0.47634104  0.33948535  0.50189162    -0.89700
H708        H  0.95514737  0.35814464  0.41874850     0.18000
H709        H  0.90365650  0.35423923  0.57625212     0.18000
N710        N  0.86533022  0.35562215  0.50766569    -0.88700
H711        H  0.48057420  0.33504769  0.46669954     0.35400
H712        H  0.46774413  0.31599362  0.51994348     0.40500
H713        H  0.84612828  0.33557995  0.48703558     0.40100
H714        H  0.86841255  0.37955063  0.49690541     0.35000
C715        C  0.50347180  0.03620831  0.33104380    -0.26800
C716        C  0.53481577  0.03542754  0.33322498    -0.14800
C717        C  0.53357143  0.00293095  0.33359977     0.35800
C718        C  0.49853443  0.47340000  0.34110803    -0.26200
C719        C  0.96907514  0.47284187  0.33640462    -0.15500
C720        C  0.97050328  0.00628932  0.33837498     0.36900
N721        N  0.93907891  0.00814839  0.33932361    -0.89700
H722        H  0.50435053  0.06109041  0.33034862     0.18000
H723        H  0.49742636  0.44850619  0.34455569     0.18000
N724        N  0.56525406  0.00130600  0.33404596    -0.88700
H725        H  0.93892837  0.02214060  0.30957175     0.35400
H726        H  0.93793502  0.52103566  0.36120666     0.40500
H727        H  0.57826692  0.01186304  0.30208892     0.40100
H728        H  0.55681751  0.47638615  0.34764651     0.35000
C729        C  0.72110178  0.25212984  0.33228127    -0.26800
C730        C  0.72189459  0.22087441  0.33435802    -0.14800
C731        C  0.75445549  0.22222444  0.33500570     0.35800
C732        C  0.78542134  0.25459183  0.33353435    -0.26200
C733        C  0.78458969  0.28585101  0.33209028    -0.15500
C734        C  0.75201944  0.28456871  0.33117085     0.36900
N735        N  0.75039061  0.31613436  0.32833039    -0.89700
H736        H  0.69618500  0.25127874  0.33168385     0.18000
H737        H  0.81025636  0.25525534  0.33417062     0.18000
N738        N  0.75627388  0.19084578  0.33619197    -0.88700
H739        H  0.72447974  0.31063394  0.32850615     0.35400
H740        H  0.76088359  0.32770280  0.29558565     0.40500
H741        H  0.77052758  0.19167736  0.36624189     0.40100
H742        H  0.77002743  0.19043459  0.30623861     0.35000
C743        C  0.84737033  0.39480454  0.16690017    -0.26800
C744        C  0.85329560  0.41347793  0.20936822    -0.14800
C745        C  0.85687732  0.44691943  0.20798812     0.35800
C746        C  0.85618145  0.46168087  0.16427952    -0.26200
C747        C  0.85197284  0.44380285  0.12132453    -0.15500
C748        C  0.84654313  0.40942339  0.12291867     0.36900
N749        N  0.84143699  0.38977210  0.08007929    -0.89700
H750        H  0.84443977  0.36902352  0.16790075     0.18000
H751        H  0.86020992  0.48790020  0.16398714     0.18000
N752        N  0.86324020  0.46689549  0.25059208    -0.88700
H753        H  0.83645543  0.36463360  0.08781521     0.35400
H754        H  0.86492164  0.40180635  0.06127749     0.40500
H755        H  0.84357475  0.47331339  0.25397198     0.40100
H756        H  0.88703928  0.49005945  0.24685492     0.35000
O757        O  0.87837313  0.87833065  0.41543561    -0.73400
O758        O  0.85054097  0.90659308  0.29522634    -0.74400
O759        O  0.81896625  0.84625824  0.35370084    -0.63000
O760        O  0.90867196  0.93786076  0.35655641    -0.71400
O761        O  0.93414317  0.91425491  0.31483247    -0.71000
O762        O  0.84460810  0.82247158  0.31283639    -0.62200
O763        O  0.87555419  0.88258774  0.25349194    -0.74700
O764        O  0.90427694  0.85525840  0.37382233    -0.73500
Cu765      Cu  0.86305800  0.89284416  0.35672901     1.04600
Cu766      Cu  0.89035820  0.86766716  0.31226728     1.04300
C767        C  0.89691778  0.86361679  0.41382402     0.92800
C768        C  0.85970566  0.90006977  0.25529364     0.91900
C769        C  0.81740162  0.81998228  0.33250774     0.84100
C770        C  0.93564886  0.94048363  0.33608826     0.90400
O771        O  0.62677653  0.63107909  0.41313575    -0.73400
O772        O  0.65105851  0.60089180  0.29128469    -0.74400
O773        O  0.68530589  0.66116719  0.35021232    -0.63000
O774        O  0.59341907  0.57182585  0.35394819    -0.71400
O775        O  0.56871600  0.59618479  0.31241698    -0.71000
O776        O  0.66021632  0.68628479  0.31126658    -0.62200
O777        O  0.62741819  0.62660406  0.25044196    -0.74700
O778        O  0.60093809  0.65478362  0.37286446    -0.73500
Cu779      Cu  0.64013639  0.61555533  0.35351914     1.04600
Cu780      Cu  0.61364767  0.64200232  0.31026661     1.04300
C781        C  0.60877961  0.64637609  0.41249232     0.92800
C782        C  0.64253847  0.60838881  0.25153798     0.91900
C783        C  0.68728556  0.68799272  0.33029539     0.84100
C784        C  0.56656518  0.56974760  0.33375864     0.90400
O785        O  0.52176439  0.93267878  0.64906424    -0.73400
O786        O  0.52286810  0.84277248  0.64851093    -0.74400
O787        O  0.49498118  0.87430841  0.58768218    -0.63000
O788        O  0.54935977  0.90193267  0.70997921    -0.74400
O789        O  0.00327048  0.87593458  0.74810798    -0.71000
O790        O  0.95039530  0.85128853  0.62512942    -0.62200
O791        O  0.97594496  0.81745514  0.68537926    -0.74700
O792        O  0.97738738  0.90871265  0.68718298    -0.73500
Cu793      Cu  0.52393296  0.88858887  0.64745995     1.04600
Cu794      Cu  0.97505821  0.86232288  0.68786472     1.04300
C795        C  0.49713246  0.93467777  0.66982093     0.92800
C796        C  0.49764997  0.81550600  0.66705522     0.91900
C797        C  0.96688596  0.86043581  0.58575827     0.84100
C798        C  0.53331352  0.89415267  0.74974645     0.90400
O799        O  0.55464990  0.65339096  0.62669802    -0.73400
O800        O  0.49819609  0.62560826  0.74746650    -0.74400
O801        O  0.52782665  0.59542887  0.68836407    -0.63000
O802        O  0.52555604  0.68474379  0.68562594    -0.71400
O803        O  0.97605490  0.65782183  0.64364210    -0.71000
O804        O  0.97841750  0.56826952  0.63827245    -0.62200
O805        O  0.94819114  0.59579437  0.69940745    -0.74700
O806        O  0.00614717  0.62930323  0.58168498    -0.73500
Cu807      Cu  0.52822976  0.64085216  0.68855249     1.04600
Cu808      Cu  0.97552815  0.61214475  0.63921746     1.04300
C809        C  0.53877851  0.64433977  0.58679164     0.92800
C810        C  0.96319998  0.60170221  0.73975031     0.91900
C811        C  0.50349419  0.56842914  0.66799845     0.84100
C812        C  0.50075134  0.68622024  0.66451628     0.90400
O813        O  0.84927672  0.94806918  0.03814862    -0.73400
O814        O  0.87683132  0.00190696  0.91604539    -0.74400
O815        O  0.90731029  0.97400653  0.97714408    -0.63000
O816        O  0.81760078  0.97577646  0.97727272    -0.71400
O817        O  0.84316296  0.52468546  0.01342286    -0.71000
O818        O  0.93184970  0.52134605  0.01571245    -0.62200
O819        O  0.90244279  0.54936586  0.95367147    -0.74700
O820        O  0.87341475  0.49626152  0.07613592    -0.73500
Cu821      Cu  0.86165615  0.97320790  0.97570108     1.04600
Cu822      Cu  0.88839595  0.52459276  0.01616409     1.04300
C823        C  0.85908790  0.96442387  0.07759363     0.92800
C824        C  0.89534458  0.53296295  0.91425028     0.91900
C825        C  0.93292548  0.49574758  0.99659608     0.84100
C826        C  0.81625689  0.50071655  0.99237170     0.90400
O827        O  0.56817399  0.97666768  0.02330217    -0.73400
O828        O  0.65841270  0.97613010  0.02190960    -0.74400
O829        O  0.62763979  0.00485772  0.08311052    -0.63000
O830        O  0.59816616  0.94842400  0.96260256    -0.71400
O831        O  0.62538378  0.50135484  0.91585331    -0.71000
O832        O  0.65337506  0.55634267  0.03773867    -0.62200
O833        O  0.68508664  0.52878165  0.97568189    -0.74700
O834        O  0.59459124  0.52919645  0.97753787    -0.73500
Cu835      Cu  0.61247059  0.97486953  0.02426631     1.04600
Cu836      Cu  0.64062906  0.53066501  0.97528448     1.04300
C837        C  0.56809940  0.50466752  0.99846752     0.92800
C838        C  0.68671137  0.50337219  0.99437509     0.91900
C839        C  0.64471587  0.54021043  0.07740594     0.84100
C840        C  0.60500593  0.96414726  0.92268966     0.90400
C841        C  0.50212614  0.97007446  0.99292051    -0.26800
C842        C  0.53459952  0.50450697  0.99922726    -0.14800
C843        C  0.53321753  0.53569954  0.99957772     0.35800
C844        C  0.50058957  0.53393544  0.99999594    -0.26200
C845        C  0.96592279  0.49507454  0.99732701    -0.15500
C846        C  0.96845469  0.96725671  0.99806717     0.36900
N847        N  0.93683526  0.93422840  0.99867221    -0.89700
H848        H  0.50305559  0.94645982  0.98609018     0.18000
H849        H  0.99701973  0.55098405  0.99304422     0.18000
N850        N  0.56480869  0.56898238  0.00019847    -0.88700
H851        H  0.93687779  0.92089108  0.02922787     0.35400
H852        H  0.93693426  0.91990608  0.96921633     0.40500
H853        H  0.57750235  0.57101509  0.03235607     0.40100
H854        H  0.55913970  0.58924009  0.99980488     0.35000
C855        C  0.75132332  0.53350731  0.99809304    -0.26800
C856        C  0.71959723  0.50241655  0.99180874    -0.14800
C857        C  0.71922536  0.96891252  0.99237032     0.35800
C858        C  0.75137447  0.97001461  0.99090829    -0.26200
C859        C  0.78354929  0.50236892  0.99039902    -0.15500
C860        C  0.78332161  0.53392097  0.99742058     0.36900
N861        N  0.81544381  0.56629312  0.00349930    -0.89700
H862        H  0.75110207  0.55755521  0.00421353     0.18000
H863        H  0.75159436  0.94593739  0.98509731     0.18000
N864        N  0.68821458  0.93602041  0.98473858    -0.88700
H865        H  0.81055861  0.58682198  0.00904442     0.35400
H866        H  0.82933033  0.57163438  0.97167681     0.40500
H867        H  0.67432578  0.93849665  0.95643664     0.40100
H868        H  0.67286558  0.92924835  0.01532452     0.35000
C869        C  0.95137605  0.60401831  0.82533939    -0.26800
C870        C  0.94235481  0.58519328  0.78275477    -0.14800
C871        C  0.91594926  0.54974359  0.78284016     0.35800
C872        C  0.90010625  0.53369519  0.82593296    -0.26200
C873        C  0.90980948  0.55223012  0.86902912    -0.15500
C874        C  0.93526271  0.58808052  0.86823000     0.36900
N875        N  0.94576055  0.60835156  0.91093733    -0.89700
H876        H  0.97161224  0.63121213  0.82550414     0.18000
H877        H  0.88065489  0.50624928  0.82586802     0.18000
N878        N  0.90684889  0.52954801  0.73981650    -0.88700
H879        H  0.94130553  0.62924896  0.90663272     0.35400
H880        H  0.97259641  0.61846387  0.91543586     0.40500
H881        H  0.89372239  0.53829312  0.71795968     0.40100
H882        H  0.88913097  0.50331703  0.74675515     0.35000
C883        C  0.58605051  0.93962281  0.79208178    -0.26800
C884        C  0.55350711  0.90876535  0.79443102    -0.14800
C885        C  0.53993490  0.89451400  0.83947536     0.35800
C886        C  0.55828954  0.91187781  0.88079132    -0.26200
C887        C  0.58975684  0.94386239  0.87835346    -0.15500
C888        C  0.60400145  0.95734485  0.83334146     0.36900
N889        N  0.63650429  0.98930526  0.82919204    -0.89700
H890        H  0.59704866  0.95107014  0.75795444     0.18000
H891        H  0.54688143  0.90102407  0.91500105     0.18000
N892        N  0.00859797  0.86190676  0.84075527    -0.88700
H893        H  0.63212454  0.00682913  0.80969992     0.35400
H894        H  0.65374550  0.98430332  0.80994529     0.40500
H895        H  0.99140433  0.86719201  0.85961798     0.40100
H896        H  0.01228106  0.84395485  0.86031750     0.35000
C897        C  0.53009168  0.78296205  0.66502659    -0.26800
C898        C  0.49794268  0.78217914  0.66525129    -0.14800
C899        C  0.96860377  0.74927130  0.66657407     0.35800
C900        C  0.96925245  0.71790163  0.66623047    -0.26200
C901        C  0.50042179  0.71952535  0.66326911    -0.15500
C902        C  0.53170839  0.75205819  0.66373451     0.36900
N903        N  0.56499284  0.75366987  0.66206726    -0.89700
H904        H  0.55412122  0.80783042  0.66609786     0.18000
H905        H  0.94479746  0.69343513  0.66752180     0.18000
N906        N  0.93570775  0.74822405  0.66753820    -0.88700
H907        H  0.58536141  0.77952997  0.66285437     0.35400
H908        H  0.56668833  0.74341206  0.62937523     0.40500
H909        H  0.92230723  0.73475562  0.69801411     0.40100
H910        H  0.92124028  0.73408100  0.63799462     0.35000
C911        C  0.97119151  0.50172031  0.66358549    -0.26800
C912        C  0.50365756  0.53518018  0.66916709    -0.14800
C913        C  0.53500935  0.53403831  0.66817342     0.35800
C914        C  0.53347690  0.50157201  0.66894656    -0.26200
C915        C  0.49721376  0.96820908  0.66936540    -0.15500
C916        C  0.97092775  0.96979537  0.66451427     0.36900
N917        N  0.93774840  0.93808781  0.66293036    -0.89700
H918        H  0.94713715  0.50253635  0.66577902     0.18000
H919        H  0.55749103  0.50061957  0.66817784     0.18000
N920        N  0.56817412  0.56568785  0.66549439    -0.88700
H921        H  0.93644397  0.92560564  0.63082405     0.35400
H922        H  0.91728586  0.94349153  0.66245289     0.40500
H923        H  0.56922861  0.57740885  0.63287801     0.40100
H924        H  0.58861164  0.56023963  0.66545964     0.35000
C925        C  0.56214640  0.65084931  0.45565284    -0.26800
C926        C  0.59437593  0.65176898  0.45744210    -0.14800
C927        C  0.61013478  0.65483018  0.50233573     0.35800
C928        C  0.59251327  0.65465407  0.54378150    -0.26200
C929        C  0.55902289  0.65089491  0.54202141    -0.15500
C930        C  0.54432855  0.65037797  0.49726263     0.36900
N931        N  0.01338924  0.65201038  0.49125564    -0.89700
H932        H  0.54995784  0.64895294  0.42158691     0.18000
H933        H  0.60448213  0.65569548  0.57775263     0.18000
N934        N  0.64391100  0.65813379  0.50724677    -0.88700
H935        H  0.00652629  0.65150658  0.45563413     0.35400
H936        H  0.01655209  0.67520222  0.50556999     0.40500
H937        H  0.66162917  0.67888348  0.48618205     0.40100
H938        H  0.64274450  0.63514976  0.49581473     0.35000
C939        C  0.65234631  0.59281231  0.12066142    -0.26800
C940        C  0.65005873  0.55999516  0.12234717    -0.14800
C941        C  0.64924484  0.54531748  0.16707195     0.35800
C942        C  0.64866218  0.56249657  0.20867836    -0.26200
C943        C  0.64848517  0.59411485  0.20689801    -0.15500
C944        C  0.65150885  0.60998515  0.16234517     0.36900
N945        N  0.65321760  0.64319550  0.15946206    -0.89700
H946        H  0.65326206  0.60450770  0.08657495     0.18000
H947        H  0.64676693  0.55012037  0.24254627     0.18000
N948        N  0.64849570  0.51269538  0.17056574    -0.88700
H949        H  0.65502831  0.65107315  0.12410489     0.35400
H950        H  0.67630875  0.66152676  0.17609815     0.40500
H951        H  0.62720366  0.99521059  0.19444620     0.40100
H952        H  0.67135472  0.01628446  0.19333128     0.35000
C953        C  0.94374072  0.85809261  0.45498347    -0.26800
C954        C  0.91206677  0.85831442  0.45803857    -0.14800
C955        C  0.89717247  0.85570903  0.50340132     0.35800
C956        C  0.91459414  0.85423213  0.54395835    -0.26200
C957        C  0.94722347  0.85611417  0.54109433    -0.15500
C958        C  0.96152337  0.85713498  0.49588847     0.36900
N959        N  0.48398260  0.84632200  0.49681801    -0.89700
H960        H  0.95541066  0.85993588  0.42053021     0.18000
H961        H  0.90312888  0.85331639  0.57828928     0.18000
N962        N  0.86448196  0.85457911  0.50978566    -0.88700
H963        H  0.50312445  0.86652972  0.47640345     0.35400
H964        H  0.47632720  0.82286587  0.47902286     0.40500
H965        H  0.84561264  0.83451177  0.48884902     0.40100
H966        H  0.86708135  0.87836689  0.49927245     0.35000
C967        C  0.50144242  0.53750670  0.33200060    -0.26800
C968        C  0.53272921  0.53661601  0.33526560    -0.14800
C969        C  0.53116603  0.50408837  0.34008003     0.35800
C970        C  0.50104279  0.97206055  0.33277711    -0.26200
C971        C  0.96911773  0.97379852  0.33726715    -0.15500
C972        C  0.97037713  0.50524883  0.33540965     0.36900
N973        N  0.93897050  0.50700963  0.33199640    -0.89700
H974        H  0.50219582  0.56223366  0.32852654     0.18000
H975        H  0.50016600  0.94718039  0.33352902     0.18000
N976        N  0.56262092  0.50216101  0.34319664    -0.88700
H977        H  0.94047297  0.52095721  0.30134342     0.35400
H978        H  0.93967636  0.02211907  0.36958903     0.40500
H979        H  0.57560626  0.51051121  0.31071616     0.40100
H980        H  0.55970692  0.97543349  0.33477071     0.35000
C981        C  0.72031550  0.75289204  0.32933352    -0.26800
C982        C  0.72087559  0.72147668  0.32980653    -0.14800
C983        C  0.75338415  0.72269623  0.33001536     0.35800
C984        C  0.78447636  0.75501702  0.33004469    -0.26200
C985        C  0.78391775  0.78643587  0.33077761    -0.15500
C986        C  0.75139099  0.78531274  0.32998114     0.36900
N987        N  0.74994338  0.81702287  0.32928671    -0.89700
H988        H  0.69546228  0.75217712  0.32904037     0.18000
H989        H  0.80921583  0.75548137  0.33034929     0.18000
N990        N  0.75503823  0.69122216  0.32951631    -0.88700
H991        H  0.72407771  0.81163061  0.32940053     0.35400
H992        H  0.76085122  0.82964507  0.29721710     0.40500
H993        H  0.76899535  0.69121808  0.35947771     0.40100
H994        H  0.76902618  0.69151860  0.29945643     0.35000
C995        C  0.85055395  0.89667689  0.16795142    -0.26800
C996        C  0.85373943  0.91421215  0.21080311    -0.14800
C997        C  0.85542415  0.94693662  0.20970736     0.35800
C998        C  0.85561354  0.96198582  0.16577087    -0.26200
C999        C  0.85396344  0.94516008  0.12276074    -0.15500
C1000       C  0.85081916  0.91175191  0.12397337     0.36900
N1001       N  0.84965310  0.89388683  0.08076532    -0.89700
H1002       H  0.84925139  0.87159707  0.16870042     0.18000
H1003       H  0.85794664  0.98751954  0.16514570     0.18000
N1004       N  0.85907998  0.96582101  0.25287886    -0.88700
H1005       H  0.84629513  0.86925791  0.08802468     0.35400
H1006       H  0.87402863  0.90805799  0.06440518     0.40500
H1007       H  0.83536747  0.95259559  0.27104487     0.40100
H1008       H  0.86289066  0.99061700  0.24552539     0.35000
loop_ 
_geom_bond_atom_site_label_1 
_geom_bond_atom_site_label_2 
_geom_bond_distance 
_geom_bond_site_symmetry_2 
_ccdc_geom_bond_type 
O1           Cu9   2.006       .  S
O1           C11   1.276       .  A
O2           Cu9   1.999       .  S
O2           C12   1.276       .  A
O3           Cu9   2.010       .  S
O3           C13   1.278       .  A
O4           Cu9   2.013       .  S
O4           C14   1.278       .  A
O5          Cu10   2.000       .  S
O5           C14   1.277       .  A
O6          Cu10   2.000       .  S
O6           C13   1.277       .  A
O7          Cu10   2.014       .  S
O7           C12   1.280       .  A
O8          Cu10   2.009       .  S
O8           C11   1.279       .  A
Cu9         Cu10   2.369       .  S
C11         C198   1.491       .  S
C12         C240   1.484       .  S
C13         C229   1.480       .  S
C14         C215   1.478       .  S
O15         Cu23   2.004       .  S
O15          C25   1.276       .  A
O16         Cu23   2.003       .  S
O16          C26   1.278       .  A
O17         Cu23   2.006       .  S
O17          C27   1.277       .  A
O18         Cu23   2.003       .  S
O18          C28   1.278       .  A
O19         Cu24   2.006       .  S
O19          C28   1.278       .  A
O20         Cu24   2.003       .  S
O20          C27   1.278       .  A
O21         Cu24   2.018       .  S
O21          C26   1.279       .  A
O22         Cu24   2.007       .  S
O22          C25   1.279       .  A
Cu23        Cu24   2.370       .  S
C25         C170   1.486       .  S
C26         C187   1.483       .  S
C27         C226   1.480       .  S
C28         C212   1.479       .  S
O29         Cu37   2.010       .  S
O29          C39   1.278       .  A
O30         Cu37   2.012       .  S
O30          C40   1.279   1_455  A
O31         Cu37   2.011   1_655  S
O31         C545   1.278       .  A
O32         Cu37   2.005       .  S
O32          C42   1.278       .  A
O33         Cu38   2.011       .  S
O33         C546   1.279       .  A
O34         Cu38   2.009       .  S
O34          C41   1.278       .  A
O35         Cu38   2.013       .  S
O35         C544   1.278       .  A
O36         Cu38   2.003       .  S
O36         C543   1.277       .  A
Cu37       Cu542   2.370   1_455  S
Cu38       Cu541   2.371       .  S
C39         O540   1.278   1_455  A
C39         C159   1.484       .  S
C40         O539   1.277       .  A
C40         C142   1.482       .  S
C41         O535   1.278       .  A
C41         C201   1.479       .  S
C42         O537   1.278       .  A
C42         C128   1.484       .  S
O43         Cu51   2.011       .  S
O43          C53   1.279       .  A
O44         Cu51   2.015   1_655  S
O44         C558   1.279       .  A
O45         Cu51   2.005       .  S
O45          C55   1.277       .  A
O46         Cu51   2.008       .  S
O46          C56   1.278       .  A
O47         Cu52   2.014       .  S
O47         C560   1.278       .  A
O48         Cu52   2.011       .  S
O48         C559   1.278       .  A
O49         Cu52   2.005       .  S
O49          C54   1.278       .  A
O50         Cu52   2.019       .  S
O50         C557   1.280       .  A
Cu51       Cu556   2.371   1_455  S
Cu52       Cu555   2.371       .  S
C53         O554   1.277       .  A
C53         C173   1.482       .  S
C54         O548   1.278       .  A
C54         C114   1.483       .  S
C55         O552   1.278   1_455  A
C55         C156   1.479       .  S
C56         O551   1.279   1_455  A
C56         C145   1.486       .  S
O57         Cu65   2.013   1_554  S
O57          C67   1.278       .  A
O58         Cu65   2.021       .  S
O58         C320   1.280       .  A
O59         Cu65   2.004       .  S
O59         C321   1.277       .  A
O60         Cu65   2.009       .  S
O60         C322   1.278       .  A
O61         Cu66   2.005       .  S
O61          C70   1.277   1_554  A
O62         Cu66   2.002       .  S
O62          C69   1.278   1_544  A
O63         Cu66   2.006   1_556  S
O63          C68   1.277       .  A
O64         Cu66   2.006   1_565  S
O64         C319   1.278       .  A
Cu65       Cu318   2.370   1_556  S
Cu66       Cu317   2.370   1_544  S
C67         O316   1.279       .  A
C67         C243   1.485       .  S
C68         O310   1.278       .  A
C68         C117   1.482       .  S
C69         O311   1.278       .  A
C69          C89   1.483       .  S
C70         O312   1.279   1_545  A
C70         C103   1.484       .  S
O71         Cu79   2.005       .  S
O71         C333   1.278   1_554  A
O72         Cu79   2.014       .  S
O72         C334   1.278       .  A
O73         Cu79   2.015       .  S
O73         C335   1.279       .  A
O74         Cu79   2.008   1_556  S
O74          C84   1.278       .  A
O75         Cu80   2.013   1_565  S
O75         C336   1.279       .  A
O76         Cu80   2.012   1_554  S
O76          C83   1.278       .  A
O77         Cu80   2.008       .  S
O77          C82   1.278   1_546  A
O78         Cu80   1.999       .  S
O78          C81   1.277       .  A
Cu79       Cu332   2.369   1_554  S
Cu80       Cu331   2.370   1_546  S
C81         O323   1.277   1_546  A
C81          C86   1.474       .  S
C82         O324   1.277       .  A
C82         C100   1.481       .  S
C83         O325   1.279       .  A
C83         C184   1.488       .  S
C84         O327   1.279       .  A
C84         C131   1.484       .  S
C85          H92   1.084       .  S
C85         C338   1.403   1_654  A
C85         C594   1.403       .  A
C86          C87   1.412       .  A
C86         C337   1.403   1_545  A
C87          C88   1.403   1_455  A
C87          N94   1.438   1_556  S
C88         H597   1.084       .  S
C88         C593   1.403   1_545  A
C89         C592   1.407   1_566  A
C89         C342   1.413       .  A
C90         C589   1.400       .  A
C90         C341   1.409       .  A
C90          N91   1.432   1_556  S
N91          H95   1.046       .  S
N91          H96   1.046   1_554  S
H93         C592   1.083       .  S
N94          H97   1.046       .  S
N94          H98   1.045   1_554  S
C99         H106   1.084       .  S
C99         C100   1.404   1_545  A
C99         C104   1.403       .  A
C100        C353   1.417   1_554  A
C101        C102   1.399       .  A
C101        C352   1.415   1_556  A
C101        N108   1.433       .  S
C102        H107   1.084       .  S
C102        C355   1.405       .  A
C103        C104   1.412   1_556  A
C103        C354   1.404   1_545  A
C104        N105   1.432       .  S
N105        H109   1.045       .  S
N105        H110   1.046   1_554  S
N108        H111   1.046       .  S
N108        H112   1.044   1_556  S
C113        H120   1.084       .  S
C113        C114   1.405       .  A
C113        C118   1.403       .  A
C114        C115   1.413       .  A
C115        C116   1.402       .  A
C115        N122   1.433       .  S
C116        H121   1.084       .  S
C116        C117   1.403       .  A
C117        C118   1.412       .  A
C118        N119   1.433       .  S
N119        H123   1.045       .  S
N119        H124   1.046       .  S
N122        H125   1.045       .  S
N122        H126   1.046       .  S
C127        H134   1.084       .  S
C127        C128   1.405       .  A
C127        C132   1.402       .  A
C128        C129   1.411       .  A
C129        C130   1.405       .  A
C129        N640   1.432       .  S
C130        H135   1.084       .  S
C130        C131   1.407       .  A
C131        C132   1.410       .  A
C132        N133   1.432       .  S
N133        H137   1.046       .  S
N133        H138   1.046       .  S
N136        C633   1.432       .  S
N136        H139   1.045       .  S
N136        H140   1.046       .  S
C141        H148   1.084       .  S
C141        C142   1.402   1_455  A
C141        C146   1.405       .  A
C142        C647   1.413       .  A
C143        C144   1.407       .  A
C143        C646   1.413       .  A
C143        N150   1.432       .  S
C144        H149   1.084       .  S
C144        C649   1.405       .  A
C145        C146   1.415       .  A
C145        C648   1.406   1_455  A
C146        N147   1.438       .  S
N147        H151   1.045       .  S
N147        H152   1.046       .  S
N150        H153   1.046       .  S
N150        H154   1.045       .  S
C155        H162   1.084       .  S
C155        C660   1.404       .  A
C155        C412   1.404   1_545  A
C156        C157   1.412       .  A
C156        C659   1.403   1_455  A
C157        C158   1.405       .  A
C157        N164   1.438       .  S
C158        H163   1.084   1_545  S
C158        C411   1.404   1_545  A
C159        C410   1.406       .  A
C159        C664   1.415   1_455  A
C160        C407   1.403       .  A
C160        C663   1.412       .  A
C160        N161   1.438       .  S
N161        H165   1.046       .  S
N161        H166   1.046       .  S
N164        H167   1.046       .  S
N164        H168   1.046       .  S
C169        H176   1.084       .  S
C169        C170   1.406       .  A
C169        C174   1.402       .  A
C170        C171   1.419       .  A
C171        C172   1.400       .  A
C171        N178   1.433       .  S
C172        H177   1.084       .  S
C172        C173   1.404       .  A
C173        C174   1.409       .  A
C174        N679   1.433       .  S
N175        C678   1.438       .  S
N175        H179   1.046       .  S
N175        H180   1.046       .  S
N178        H181   1.045       .  S
N178        H182   1.044       .  S
C183        H190   1.083       .  S
C183        C184   1.408       .  A
C183        C188   1.410       .  A
C184        C185   1.411       .  A
C185        C186   1.401       .  A
C185        N192   1.432       .  S
C186        H191   1.084       .  S
C186        C187   1.404       .  A
C187        C188   1.412       .  A
C188        N189   1.438       .  S
N189        H193   1.046       .  S
N189        H194   1.045       .  S
N192        H447   1.046   1_545  S
N192        H448   1.046       .  S
H195        N444   1.046       .  S
H196        N444   1.046       .  S
C197        H204   1.083       .  S
C197        C198   1.409       .  A
C197        C202   1.405       .  A
C198        C199   1.422       .  A
C199        C200   1.399       .  A
C199        N206   1.433       .  S
C200        H205   1.084       .  S
C200        C201   1.402       .  A
C201        C202   1.409       .  A
C202        N707   1.438       .  S
N203        C706   1.438       .  S
N203        H207   1.046   1_655  S
N203        H208   1.046       .  S
N206        H209   1.045       .  S
N206        H210   1.045       .  S
C211        H218   1.084       .  S
C211        C212   1.405       .  A
C211        C720   1.403   1_455  A
C212        C213   1.413       .  A
C213        C466   1.404   1_545  A
C213        N220   1.438       .  S
C214        H219   1.084   1_455  S
C214        C465   1.404       .  A
C214        C719   1.402   1_455  A
C215        C718   1.403       .  A
C215        C468   1.409       .  A
C216        C715   1.406       .  A
C216        C467   1.413   1_545  A
C216        N217   1.438       .  S
N217        H221   1.046   1_545  S
N217        H474   1.046       .  S
N220        H223   1.046       .  S
N220        H476   1.046   1_545  S
H222        N469   1.046       .  S
H224        N472   1.046       .  S
C225        H232   1.084       .  S
C225        C226   1.404       .  A
C225        C230   1.405       .  A
C226        C227   1.410       .  A
C227        C228   1.402       .  A
C227        N234   1.433       .  S
C228        H233   1.084       .  S
C228        C229   1.405       .  A
C229        C230   1.413       .  A
C230        N231   1.438       .  S
N231        H235   1.045       .  S
N231        H236   1.046       .  S
N234        H237   1.045       .  S
N234        H238   1.046       .  S
C239        H246   1.084       .  S
C239        C240   1.404       .  A
C239        C244   1.408       .  A
C240        C241   1.412       .  A
C241        C242   1.401       .  A
C241        N248   1.433       .  S
C242        H247   1.084       .  S
C242        C243   1.403       .  A
C243        C244   1.416       .  A
C244        N245   1.438       .  S
N245        H249   1.046       .  S
N245        H250   1.045       .  S
N248        H251   1.045       .  S
N248        H252   1.046       .  S
O253       Cu261   2.010       .  S
O253        C263   1.277       .  A
O254       Cu261   2.000       .  S
O254        C264   1.276       .  A
O255       Cu261   2.015       .  S
O255        C265   1.279       .  A
O256       Cu261   2.014       .  S
O256        C266   1.278       .  A
O257       Cu262   2.006       .  S
O257        C266   1.278       .  A
O258       Cu262   2.011       .  S
O258        C265   1.278       .  A
O259       Cu262   2.020       .  S
O259        C264   1.280       .  A
O260       Cu262   2.018       .  S
O260        C263   1.280       .  A
Cu261      Cu262   2.367       .  S
C263        C450   1.494       .  S
C264        C492   1.488       .  S
C265        C481   1.485       .  S
C266        C467   1.482       .  S
O267       Cu275   2.013       .  S
O267        C277   1.278       .  A
O268       Cu275   2.013       .  S
O268        C278   1.279       .  A
O269       Cu275   2.013       .  S
O269        C279   1.278       .  A
O270       Cu275   2.003       .  S
O270        C280   1.277       .  A
O271       Cu276   2.005       .  S
O271        C280   1.278       .  A
O272       Cu276   2.010       .  S
O272        C279   1.278       .  A
O273       Cu276   2.012       .  S
O273        C278   1.279       .  A
O274       Cu276   2.002       .  S
O274        C277   1.277       .  A
Cu275      Cu276   2.369       .  S
C277        C422   1.484       .  S
C278        C439   1.485       .  S
C279        C478   1.485       .  S
C280        C464   1.478       .  S
O281       Cu289   2.007       .  S
O281        C291   1.278       .  A
O282       Cu289   2.013       .  S
O282        C292   1.279       .  A
O283       Cu289   2.014       .  S
O283        C797   1.279   1_455  A
O284       Cu289   2.009       .  S
O284        C294   1.278       .  A
O285       Cu290   2.023       .  S
O285        C798   1.280       .  A
O286       Cu290   2.014       .  S
O286        C293   1.279       .  A
O287       Cu290   2.019       .  S
O287        C796   1.279       .  A
O288       Cu290   2.012       .  S
O288        C795   1.279       .  A
Cu289      Cu794   2.369   1_455  S
Cu290      Cu793   2.369       .  S
C291        O792   1.278   1_455  A
C291        C411   1.480       .  S
C292        O791   1.278   1_455  A
C292        C394   1.485       .  S
C293        O787   1.279       .  A
C293        C453   1.486       .  S
C294        O789   1.278       .  A
C294        C380   1.486       .  S
O295       Cu303   2.006       .  S
O295        C305   1.278       .  A
O296       Cu303   2.014   1_655  S
O296        C810   1.279       .  A
O297       Cu303   2.004       .  S
O297        C307   1.277       .  A
O298       Cu303   2.004       .  S
O298        C308   1.277       .  A
O299       Cu304   2.012       .  S
O299        C812   1.278       .  A
O300       Cu304   2.004       .  S
O300        C811   1.278       .  A
O301       Cu304   2.011       .  S
O301        C306   1.277       .  A
O302       Cu304   2.013       .  S
O302        C809   1.279       .  A
Cu303      Cu808   2.372   1_455  S
Cu304      Cu807   2.369       .  S
C305        O806   1.278       .  A
C305        C425   1.483       .  S
C306        O800   1.281       .  A
C306        C366   1.494       .  S
C307        O804   1.279   1_455  A
C307        C408   1.477       .  S
C308        O803   1.279   1_455  A
C308        C397   1.480       .  S
O309       Cu317   2.003   1_554  S
O309        C319   1.277       .  A
O310       Cu317   2.006   1_545  S
O311       Cu317   2.009       .  S
O312       Cu317   2.015       .  S
O313       Cu318   2.010       .  S
O313        C322   1.278   1_554  A
O314       Cu318   2.004       .  S
O314        C321   1.278   1_554  A
O315       Cu318   2.006   1_556  S
O315        C320   1.277       .  A
O316       Cu318   2.008       .  S
C319        C495   1.478       .  S
C320        C369   1.485       .  S
C321        C341   1.477       .  S
C322        C355   1.485       .  S
O323       Cu331   1.999       .  S
O324       Cu331   2.007       .  S
O325       Cu331   2.010   1_545  S
O326       Cu331   2.006   1_556  S
O326        C336   1.278       .  A
O327       Cu332   2.010       .  S
O328       Cu332   2.012   1_554  S
O328        C335   1.279       .  A
O329       Cu332   2.000       .  S
O329        C334   1.277   1_556  A
O330       Cu332   1.991       .  S
O330        C333   1.276       .  A
C333        C338   1.475       .  S
C334        C352   1.481       .  S
C335        C436   1.490       .  S
C336        C383   1.484       .  S
C337        H344   1.084       .  S
C337        C846   1.400   1_455  A
C338        C339   1.413       .  A
C339        C340   1.402   1_455  A
C339        N346   1.438       .  S
C340        H849   1.084       .  S
C340        C845   1.402       .  A
C341        C844   1.404       .  A
C342        C841   1.401       .  A
C342        N343   1.432       .  S
N343        H347   1.046   1_556  S
N343        H348   1.046       .  S
H345        C844   1.084   1_554  S
N346        H349   1.046   1_556  S
N346        H350   1.046       .  S
C351        H358   1.084       .  S
C351        C352   1.404       .  A
C351        C356   1.406       .  A
C353        C354   1.400       .  A
C353        N360   1.433       .  S
C354        H359   1.084       .  S
C355        C356   1.414   1_556  A
C356        N357   1.438       .  S
N357        H361   1.046       .  S
N357        H362   1.046   1_554  S
N360        H363   1.045       .  S
N360        H364   1.045   1_556  S
C365        H372   1.083       .  S
C365        C366   1.406       .  A
C365        C370   1.407       .  A
C366        C367   1.416       .  A
C367        C368   1.407       .  A
C367        N374   1.432       .  S
C368        H373   1.084       .  S
C368        C369   1.403       .  A
C369        C370   1.415       .  A
C370        N371   1.439       .  S
N371        H375   1.046       .  S
N371        H376   1.046       .  S
N374        H377   1.046       .  S
N374        H378   1.046       .  S
C379        H386   1.084       .  S
C379        C380   1.406       .  A
C379        C384   1.403       .  A
C380        C381   1.412       .  A
C381        C382   1.405       .  A
C381        N892   1.432       .  S
C382        H387   1.084       .  S
C382        C383   1.406       .  A
C383        C384   1.410       .  A
C384        N385   1.432       .  S
N385        H389   1.046   1_565  S
N385        H390   1.045       .  S
N388        C885   1.432       .  S
N388        H391   1.046       .  S
N388        H392   1.046       .  S
C393        H400   1.084       .  S
C393        C394   1.405       .  A
C393        C398   1.404       .  A
C394        C899   1.413   1_455  A
C395        C898   1.410       .  A
C395        C396   1.404       .  A
C395        N402   1.432       .  S
C396        H401   1.084       .  S
C396        C901   1.404       .  A
C397        C900   1.403   1_455  A
C397        C398   1.411       .  A
C398        N399   1.433       .  S
N399        H403   1.046       .  S
N399        H404   1.046       .  S
N402        H405   1.045       .  S
N402        H406   1.046       .  S
C407        H414   1.084       .  S
C407        C912   1.402       .  A
C408        C911   1.402   1_455  A
C408        C409   1.411       .  A
C409        C410   1.406       .  A
C409        N416   1.438       .  S
C410        H415   1.083       .  S
C411        C916   1.413   1_455  A
C412        C915   1.412       .  A
C412        N413   1.433       .  S
N413        H417   1.045       .  S
N413        H418   1.046       .  S
N416        H419   1.046       .  S
N416        H420   1.045       .  S
C421        H428   1.084       .  S
C421        C422   1.406       .  A
C421        C426   1.404       .  A
C422        C423   1.416       .  A
C423        C424   1.399       .  A
C423        N430   1.432       .  S
C424        H429   1.084       .  S
C424        C425   1.405       .  A
C425        C426   1.413       .  A
C426        N931   1.438       .  S
N427        C930   1.438       .  S
N427        H431   1.045       .  S
N427        H432   1.046       .  S
N430        H433   1.045       .  S
N430        H434   1.044       .  S
C435        H442   1.083       .  S
C435        C436   1.407       .  A
C435        C440   1.408       .  A
C436        C437   1.412       .  A
C437        C438   1.405       .  A
C437        N444   1.432       .  S
C438        H443   1.084       .  S
C438        C439   1.405       .  A
C439        C440   1.412       .  A
C440        N441   1.438       .  S
N441        H445   1.046       .  S
N441        H446   1.045       .  S
C449        H456   1.083       .  S
C449        C450   1.408       .  A
C449        C454   1.406       .  A
C450        C451   1.421       .  A
C451        C452   1.401       .  A
C451        N458   1.433       .  S
C452        H457   1.084       .  S
C452        C453   1.404       .  A
C453        C454   1.409       .  A
C454        N959   1.432       .  S
N455        C958   1.438       .  S
N455        H459   1.046   1_655  S
N455        H460   1.045       .  S
N458        H461   1.045       .  S
N458        H462   1.045       .  S
C463        H470   1.084       .  S
C463        C464   1.404       .  A
C463        C972   1.401   1_455  A
C464        C465   1.414       .  A
C465        N472   1.438       .  S
C466        H471   1.084   1_455  S
C466        C971   1.403   1_455  A
C467        C970   1.404       .  A
C468        C967   1.404       .  A
C468        N469   1.433       .  S
N469        H473   1.046       .  S
N472        H475   1.046       .  S
C477        H484   1.084       .  S
C477        C478   1.405       .  A
C477        C482   1.407       .  A
C478        C479   1.411       .  A
C479        C480   1.405       .  A
C479        N486   1.432       .  S
C480        H485   1.084       .  S
C480        C481   1.405       .  A
C481        C482   1.414       .  A
C482        N483   1.438       .  S
N483        H487   1.046       .  S
N483        H488   1.046       .  S
N486        H489   1.045       .  S
N486        H490   1.046       .  S
C491        H498   1.084       .  S
C491        C492   1.406       .  A
C491        C496   1.404       .  A
C492        C493   1.416       .  A
C493        C494   1.402       .  A
C493        N500   1.432       .  S
C494        H499   1.084       .  S
C494        C495   1.400       .  A
C495        C496   1.411       .  A
C496        N497   1.433       .  S
N497        H501   1.046       .  S
N497        H502   1.046       .  S
N500        H503   1.046       .  S
N500        H504   1.045       .  S
O505       Cu513   2.008       .  S
O505        C515   1.278       .  A
O506       Cu513   2.008       .  S
O506        C516   1.277       .  A
O507       Cu513   2.004       .  S
O507        C517   1.277       .  A
O508       Cu513   1.998       .  S
O508        C518   1.276       .  A
O509       Cu514   2.005       .  S
O509        C518   1.278       .  A
O510       Cu514   2.011       .  S
O510        C517   1.278       .  A
O511       Cu514   2.015       .  S
O511        C516   1.279       .  A
O512       Cu514   2.006       .  S
O512        C515   1.278       .  A
Cu513      Cu514   2.371       .  S
C515        C702   1.486       .  S
C516        C744   1.483       .  S
C517        C733   1.480       .  S
C518        C719   1.474       .  S
O519       Cu527   2.013       .  S
O519        C529   1.278       .  A
O520       Cu527   2.009       .  S
O520        C530   1.279       .  A
O521       Cu527   2.011       .  S
O521        C531   1.278       .  A
O522       Cu527   2.009       .  S
O522        C532   1.278       .  A
O523       Cu528   2.007       .  S
O523        C532   1.278       .  A
O524       Cu528   2.005       .  S
O524        C531   1.278       .  A
O525       Cu528   2.011       .  S
O525        C530   1.278       .  A
O526       Cu528   2.006       .  S
O526        C529   1.278       .  A
Cu527      Cu528   2.369       .  S
C529        C674   1.487       .  S
C530        C691   1.485       .  S
C531        C730   1.482       .  S
C532        C716   1.482       .  S
O533       Cu541   2.007       .  S
O533        C543   1.278       .  A
O534       Cu541   2.010       .  S
O534        C544   1.279       .  A
O535       Cu541   2.006       .  S
O536       Cu541   2.002       .  S
O536        C546   1.277       .  A
O537       Cu542   2.011   1_455  S
O538       Cu542   2.001       .  S
O538        C545   1.278       .  A
O539       Cu542   2.010       .  S
O540       Cu542   2.006       .  S
C543        C663   1.478       .  S
C544        C646   1.484       .  S
C545        C705   1.484       .  S
C546        C632   1.480       .  S
O547       Cu555   2.000       .  S
O547        C557   1.277       .  A
O548       Cu555   2.004       .  S
O549       Cu555   2.010       .  S
O549        C559   1.278       .  A
O550       Cu555   2.011       .  S
O550        C560   1.278       .  A
O551       Cu556   2.013       .  S
O552       Cu556   2.008       .  S
O553       Cu556   1.998       .  S
O553        C558   1.276       .  A
O554       Cu556   2.004   1_455  S
C557        C677   1.485       .  S
C558        C618   1.480       .  S
C559        C660   1.479       .  S
C560        C649   1.482       .  S
O561       Cu569   2.013   1_554  S
O561        C571   1.278       .  A
O562       Cu569   2.012       .  S
O562        C824   1.279       .  A
O563       Cu569   2.003       .  S
O563        C825   1.277       .  A
O564       Cu569   2.009       .  S
O564        C826   1.279       .  A
O565       Cu570   2.001       .  S
O565        C574   1.277   1_554  A
O566       Cu570   1.995       .  S
O566        C573   1.277   1_544  A
O567       Cu570   2.002   1_556  S
O567        C572   1.277       .  A
O568       Cu570   2.007   1_565  S
O568        C823   1.279       .  A
Cu569      Cu822   2.368   1_556  S
Cu570      Cu821   2.369   1_544  S
C571        O820   1.279       .  A
C571        C747   1.492       .  S
C572        O814   1.280       .  A
C572        C621   1.489       .  S
C573        O815   1.277       .  A
C573        C593   1.474       .  S
C574        O816   1.278   1_545  A
C574        C607   1.483       .  S
O575       Cu583   2.003       .  S
O575        C837   1.278   1_554  A
O576       Cu583   2.003       .  S
O576        C838   1.277   1_554  A
O577       Cu583   2.012       .  S
O577        C839   1.279       .  A
O578       Cu583   2.002   1_556  S
O578        C588   1.277       .  A
O579       Cu584   2.017   1_565  S
O579        C840   1.280       .  A
O580       Cu584   2.010   1_554  S
O580        C587   1.278       .  A
O581       Cu584   2.009       .  S
O581        C586   1.278   1_556  A
O582       Cu584   2.003       .  S
O582        C585   1.277   1_556  A
Cu583      Cu836   2.370   1_554  S
Cu584      Cu835   2.371   1_546  S
C585        O827   1.276   1_545  A
C585        C590   1.471       .  S
C586        O828   1.277   1_545  A
C586        C604   1.478   1_544  S
C587        O829   1.280       .  A
C587        C688   1.488       .  S
C588        O831   1.279       .  A
C588        C635   1.486       .  S
C589        H596   1.084       .  S
C589        C842   1.403       .  A
C590        C841   1.401   1_544  A
C590        C591   1.409       .  A
C591        C592   1.405       .  A
C591        N598   1.438       .  S
C593        C846   1.409       .  A
C594        C845   1.411   1_554  A
C594        N595   1.437       .  S
N595        H599   1.045       .  S
N595        H600   1.045       .  S
N598        H601   1.046       .  S
N598        H602   1.045       .  S
C603        H610   1.084       .  S
C603        C604   1.403   1_544  A
C603        C608   1.403       .  A
C604        C857   1.415       .  A
C605        C856   1.414       .  A
C605        C606   1.398       .  A
C605        N612   1.433       .  S
C606        H611   1.084       .  S
C606        C859   1.405       .  A
C607        C858   1.405   1_545  A
C607        C608   1.413   1_556  A
C608        N609   1.433       .  S
N609        H613   1.046       .  S
N609        H614   1.045   1_554  S
N612        H615   1.046       .  S
N612        H616   1.044   1_556  S
C617        H624   1.084       .  S
C617        C618   1.401       .  A
C617        C622   1.403       .  A
C618        C619   1.414       .  A
C619        C620   1.406       .  A
C619        N626   1.439       .  S
C620        H625   1.083       .  S
C620        C621   1.405       .  A
C621        C622   1.415       .  A
C622        N623   1.432       .  S
N623        H627   1.045       .  S
N623        H628   1.046       .  S
N626        H629   1.045       .  S
N626        H630   1.045       .  S
C631        H638   1.084       .  S
C631        C632   1.405       .  A
C631        C636   1.404       .  A
C632        C633   1.408       .  A
C633        C634   1.403       .  A
C634        H639   1.083       .  S
C634        C635   1.407       .  A
C635        C636   1.412       .  A
C636        N637   1.432       .  S
N637        H641   1.046       .  S
N637        H642   1.046       .  S
N640        H643   1.045   1_455  S
N640        H644   1.046       .  S
C645        H652   1.084       .  S
C645        C646   1.404       .  A
C645        C650   1.402       .  A
C647        C648   1.408       .  A
C647        N654   1.438       .  S
C648        H653   1.084       .  S
C649        C650   1.409       .  A
C650        N651   1.432       .  S
N651        H655   1.046       .  S
N651        H656   1.045       .  S
N654        H657   1.046       .  S
N654        H658   1.046       .  S
C659        H666   1.084       .  S
C659        C916   1.404   1_545  A
C660        C661   1.411       .  A
C661        C662   1.406   1_545  A
C661        N668   1.438       .  S
C662        H667   1.083       .  S
C662        C915   1.406       .  A
C663        C914   1.404       .  A
C664        C911   1.405       .  A
C664        N665   1.438       .  S
N665        H669   1.046       .  S
N665        H670   1.045       .  S
N668        H671   1.046       .  S
N668        H672   1.045       .  S
C673        H680   1.083       .  S
C673        C674   1.408       .  A
C673        C678   1.406       .  A
C674        C675   1.417       .  A
C675        C676   1.399       .  A
C675        N682   1.433       .  S
C676        H681   1.084       .  S
C676        C677   1.406       .  A
C677        C678   1.411       .  A
N679        H683   1.046   1_455  S
N679        H684   1.045       .  S
N682        H685   1.045       .  S
N682        H686   1.044       .  S
C687        H694   1.083       .  S
C687        C688   1.407       .  A
C687        C692   1.409       .  A
C688        C689   1.410       .  A
C689        C690   1.403       .  A
C689        N696   1.432       .  S
C690        H695   1.084       .  S
C690        C691   1.405       .  A
C691        C692   1.414       .  A
C692        N693   1.438       .  S
N693        H697   1.046       .  S
N693        H698   1.045       .  S
N696        H951   1.046   1_545  S
N696        H952   1.046       .  S
H699        N948   1.045       .  S
H700        N948   1.046       .  S
C701        H708   1.084       .  S
C701        C702   1.408       .  A
C701        C706   1.408       .  A
C702        C703   1.416       .  A
C703        C704   1.396       .  A
C703        N710   1.433       .  S
C704        H709   1.084       .  S
C704        C705   1.404       .  A
C705        C706   1.413       .  A
N707        H711   1.046       .  S
N707        H712   1.045       .  S
N710        H713   1.045       .  S
N710        H714   1.045       .  S
C715        H722   1.084       .  S
C715        C716   1.405       .  A
C716        C717   1.413       .  A
C717        C970   1.405   1_545  A
C717        N724   1.438       .  S
C718        H723   1.084       .  S
C718        C969   1.404       .  A
C719        C972   1.408       .  A
C720        C971   1.410   1_545  A
C720        N721   1.433       .  S
N721        H725   1.046       .  S
N721        H978   1.046       .  S
N724        H727   1.046       .  S
N724        H980   1.046   1_545  S
H726        N973   1.045       .  S
H728        N976   1.046       .  S
C729        H736   1.084       .  S
C729        C730   1.404       .  A
C729        C734   1.404       .  A
C730        C731   1.411       .  A
C731        C732   1.404       .  A
C731        N738   1.432       .  S
C732        H737   1.084       .  S
C732        C733   1.404       .  A
C733        C734   1.413       .  A
C734        N735   1.438       .  S
N735        H739   1.046       .  S
N735        H740   1.046       .  S
N738        H741   1.045       .  S
N738        H742   1.046       .  S
C743        H750   1.084       .  S
C743        C744   1.402       .  A
C743        C748   1.408       .  A
C744        C745   1.410       .  A
C745        C746   1.403       .  A
C745        N752   1.433       .  S
C746        H751   1.084       .  S
C746        C747   1.406       .  A
C747        C748   1.419       .  A
C748        N749   1.438       .  S
N749        H753   1.045       .  S
N749        H754   1.045       .  S
N752        H755   1.045       .  S
N752        H756   1.046       .  S
O757       Cu765   2.012       .  S
O757        C767   1.278       .  A
O758       Cu765   2.006       .  S
O758        C768   1.277       .  A
O759       Cu765   2.012       .  S
O759        C769   1.278       .  A
O760       Cu765   2.007       .  S
O760        C770   1.277       .  A
O761       Cu766   2.005       .  S
O761        C770   1.278       .  A
O762       Cu766   2.014       .  S
O762        C769   1.278       .  A
O763       Cu766   2.011       .  S
O763        C768   1.279       .  A
O764       Cu766   2.008       .  S
O764        C767   1.278       .  A
Cu765      Cu766   2.369       .  S
C767        C954   1.488       .  S
C768        C996   1.484       .  S
C769        C985   1.485       .  S
C770        C971   1.479       .  S
O771       Cu779   2.012       .  S
O771        C781   1.277       .  A
O772       Cu779   2.010       .  S
O772        C782   1.278       .  A
O773       Cu779   2.012       .  S
O773        C783   1.278       .  A
O774       Cu779   2.006       .  S
O774        C784   1.278       .  A
O775       Cu780   2.011       .  S
O775        C784   1.278       .  A
O776       Cu780   2.013       .  S
O776        C783   1.279       .  A
O777       Cu780   2.023       .  S
O777        C782   1.280       .  A
O778       Cu780   2.016       .  S
O778        C781   1.279       .  A
Cu779      Cu780   2.368       .  S
C781        C926   1.490       .  S
C782        C943   1.489       .  S
C783        C982   1.485       .  S
C784        C968   1.484       .  S
O785       Cu793   2.003       .  S
O785        C795   1.278       .  A
O786       Cu793   2.007       .  S
O786        C796   1.278       .  A
O787       Cu793   2.016       .  S
O788       Cu793   2.013       .  S
O788        C798   1.279       .  A
O789       Cu794   2.012   1_455  S
O790       Cu794   2.005       .  S
O790        C797   1.278       .  A
O791       Cu794   2.009       .  S
O792       Cu794   2.006       .  S
C795        C915   1.484       .  S
C796        C898   1.484       .  S
C797        C957   1.487       .  S
C798        C884   1.491       .  S
O799       Cu807   2.017       .  S
O799        C809   1.279       .  A
O800       Cu807   2.021       .  S
O801       Cu807   2.004       .  S
O801        C811   1.277       .  A
O802       Cu807   2.008       .  S
O802        C812   1.278       .  A
O803       Cu808   2.016       .  S
O804       Cu808   2.011       .  S
O805       Cu808   1.998       .  S
O805        C810   1.276       .  A
O806       Cu808   2.004   1_455  S
C809        C929   1.490       .  S
C810        C870   1.477       .  S
C811        C912   1.477       .  S
C812        C901   1.483       .  S
O813       Cu821   2.009   1_554  S
O813        C823   1.278       .  A
O814       Cu821   2.012   1_545  S
O815       Cu821   2.002       .  S
O816       Cu821   2.008       .  S
O817       Cu822   2.004       .  S
O817        C826   1.277   1_554  A
O818       Cu822   1.997       .  S
O818        C825   1.277   1_554  A
O819       Cu822   2.004   1_556  S
O819        C824   1.277       .  A
O820       Cu822   2.012       .  S
C823        C999   1.487       .  S
C824        C873   1.490       .  S
C825        C845   1.474       .  S
C826        C859   1.485       .  S
O827       Cu835   2.000       .  S
O828       Cu835   2.005       .  S
O829       Cu835   2.017   1_545  S
O830       Cu835   2.012   1_556  S
O830        C840   1.278       .  A
O831       Cu836   2.016       .  S
O832       Cu836   2.016   1_554  S
O832        C839   1.279       .  A
O833       Cu836   2.009       .  S
O833        C838   1.278       .  A
O834       Cu836   2.005       .  S
O834        C837   1.277       .  A
C837        C842   1.478       .  S
C838        C856   1.477       .  S
C839        C940   1.489       .  S
C840        C887   1.488       .  S
C841        H848   1.084       .  S
C842        C843   1.413       .  A
C843        C844   1.405       .  A
C843        N850   1.438   1_556  S
C846        N847   1.433       .  S
N847        H851   1.046   1_556  S
N847        H852   1.045       .  S
N850        H853   1.046       .  S
N850        H854   1.046   1_554  S
C855        H862   1.084   1_556  S
C855        C856   1.402       .  A
C855        C860   1.406       .  A
C857        C858   1.398       .  A
C857        N864   1.433       .  S
C858        H863   1.084       .  S
C859        C860   1.416       .  A
C860        N861   1.438   1_556  S
N861        H865   1.046       .  S
N861        H866   1.045   1_554  S
N864        H867   1.046       .  S
N864        H868   1.045   1_556  S
C869        H876   1.084       .  S
C869        C870   1.400       .  A
C869        C874   1.403       .  A
C870        C871   1.413       .  A
C871        C872   1.406       .  A
C871        N878   1.439       .  S
C872        H877   1.083       .  S
C872        C873   1.407       .  A
C873        C874   1.416       .  A
C874        N875   1.432       .  S
N875        H879   1.046       .  S
N875        H880   1.046       .  S
N878        H881   1.045       .  S
N878        H882   1.046       .  S
C883        H890   1.084       .  S
C883        C884   1.407       .  A
C883        C888   1.405       .  A
C884        C885   1.412       .  A
C885        C886   1.407       .  A
C886        H891   1.084       .  S
C886        C887   1.407       .  A
C887        C888   1.411       .  A
C888        N889   1.432       .  S
N889        H893   1.046   1_565  S
N889        H894   1.045       .  S
N892        H895   1.045   1_455  S
N892        H896   1.046       .  S
C897        H904   1.084       .  S
C897        C898   1.405       .  A
C897        C902   1.407       .  A
C899        C900   1.404       .  A
C899        N906   1.432       .  S
C900        H905   1.084       .  S
C901        C902   1.414       .  A
C902        N903   1.438       .  S
N903        H907   1.046       .  S
N903        H908   1.046       .  S
N906        H909   1.046       .  S
N906        H910   1.046       .  S
C911        H918   1.084       .  S
C912        C913   1.413       .  A
C913        C914   1.406       .  A
C913        N920   1.438       .  S
C914        H919   1.084       .  S
C916        N917   1.438       .  S
N917        H921   1.046       .  S
N917        H922   1.045       .  S
N920        H923   1.046       .  S
N920        H924   1.045       .  S
C925        H932   1.083       .  S
C925        C926   1.406       .  A
C925        C930   1.407       .  A
C926        C927   1.418       .  A
C927        C928   1.402       .  A
C927        N934   1.433       .  S
C928        H933   1.084       .  S
C928        C929   1.406       .  A
C929        C930   1.414       .  A
N931        H935   1.046       .  S
N931        H936   1.046       .  S
N934        H937   1.046       .  S
N934        H938   1.044       .  S
C939        H946   1.083       .  S
C939        C940   1.407       .  A
C939        C944   1.409       .  A
C940        C941   1.412       .  A
C941        C942   1.404       .  A
C941        N948   1.433       .  S
C942        H947   1.084       .  S
C942        C943   1.406       .  A
C943        C944   1.413       .  A
C944        N945   1.437       .  S
N945        H949   1.046       .  S
N945        H950   1.045       .  S
C953        H960   1.084       .  S
C953        C954   1.408       .  A
C953        C958   1.408       .  A
C954        C955   1.416       .  A
C955        C956   1.398       .  A
C955        N962   1.432       .  S
C956        H961   1.084       .  S
C956        C957   1.405       .  A
C957        C958   1.413       .  A
N959        H963   1.046       .  S
N959        H964   1.045       .  S
N962        H965   1.045       .  S
N962        H966   1.045       .  S
C967        H974   1.084       .  S
C967        C968   1.407       .  A
C968        C969   1.415       .  A
C969        N976   1.438       .  S
C970        H975   1.084       .  S
C972        N973   1.433       .  S
N973        H977   1.046       .  S
N976        H979   1.046       .  S
C981        H988   1.083       .  S
C981        C982   1.404       .  A
C981        C986   1.407       .  A
C982        C983   1.411       .  A
C983        C984   1.405       .  A
C983        N990   1.432       .  S
C984        H989   1.084       .  S
C984        C985   1.405       .  A
C985        C986   1.414       .  A
C986        N987   1.438       .  S
N987        H991   1.045       .  S
N987        H992   1.046       .  S
N990        H993   1.046       .  S
N990        H994   1.045       .  S
C995       H1002   1.084       .  S
C995        C996   1.404       .  A
C995       C1000   1.406       .  A
C996        C997   1.414       .  A
C997        C998   1.405       .  A
C997       N1004   1.438       .  S
C998       H1003   1.084       .  S
C998        C999   1.405       .  A
C999       C1000   1.416       .  A
C1000      N1001   1.438       .  S
N1001      H1005   1.046       .  S
N1001      H1006   1.046       .  S
N1004      H1007   1.045       .  S
N1004      H1008   1.046       .  S
