geometry optimzed in LAMMPS
_audit_creation_date              2020-12-01 
_audit_creation_method            'lammps2cif' 
_symmetry_space_group_name_H-M    'P1' 
_symmetry_Int_Tables_number       1 
_symmetry_cell_setting            triclinic 
loop_ 
_symmetry_equiv_pos_as_xyz 
  x,y,z 
_cell_length_a                    24.78364478 
_cell_length_b                    24.751448900293365 
_cell_length_c                    44.26239206756634 
_cell_angle_alpha                 89.99541489373443 
_cell_angle_beta                  90.00230672302943 
_cell_angle_gamma                 90.01372638564769 
loop_ 
_atom_site_label 
_atom_site_type_symbol 
_atom_site_fract_x 
_atom_site_fract_y 
_atom_site_fract_z 
_atom_site_charge 
C1          C  0.81796108  0.61375412  0.31138642     0.82600
N2          N  0.84525641  0.58610576  0.33307092    -0.75700
C3          C  0.89336837  0.60511209  0.34336372     0.85000
N4          N  0.91374612  0.65202850  0.33207841    -0.75700
C5          C  0.88615898  0.67938824  0.31036769     0.85100
N6          N  0.83840824  0.66025249  0.30021861    -0.77400
C7          C  0.77479333  0.79457493  0.10605706     0.82600
N8          N  0.75615488  0.74611753  0.11586360    -0.75700
C9          C  0.70633507  0.72870263  0.10773046     0.85000
N10         N  0.67452449  0.76040799  0.09004854    -0.75700
C11         C  0.69282842  0.80919502  0.08024337     0.85100
N12         N  0.74296796  0.82631480  0.08837920    -0.77400
C13         C  0.35669913  0.71700613  0.33224217     0.82600
N14         N  0.30746713  0.73416182  0.32280225    -0.75700
C15         C  0.28910395  0.78382948  0.33077826     0.85000
N16         N  0.32058512  0.81688169  0.34787509    -0.75700
C17         C  0.37009371  0.80009671  0.35725480     0.85100
N18         N  0.38814645  0.75016780  0.34930776    -0.77400
C19         C  0.87142191  0.23641015  0.12106623     0.82600
N20         N  0.90051384  0.26258747  0.09950029    -0.75700
C21         C  0.88205513  0.30990033  0.08772990     0.85000
N22         N  0.83455763  0.33090459  0.09768434    -0.75700
C23         C  0.80568774  0.30450917  0.11923668     0.85100
N24         N  0.82422202  0.25749321  0.13085855    -0.77400
C25         C  0.15860222  0.84699368  0.28782889     0.44800
N26         N  0.13018328  0.90438961  0.25521371     0.03700
C27         C  0.89269972  0.05314775  0.25906080    -0.04200
H28         H  0.87426074  0.84316196  0.23690754     0.09200
C29         C  0.95960549  0.87592114  0.13886360    -0.04500
Co30       Co  0.02965442  0.96072768  0.27515616     0.74200
N31         N  0.93604893  0.90060588  0.24968801    -0.23700
Co32       Co  0.93505792  0.96326175  0.21735516     0.74100
C33         C  0.90750162  0.85371218  0.14822432     0.44900
N34         N  0.09478787  0.90476615  0.16588927     0.03300
N35         N  0.93648692  0.90777325  0.18240635     0.03400
N36         N  0.95239580  0.04921910  0.29758209    -0.44600
H37         H  0.08584386  0.86276220  0.31898821     0.09200
N38         N  0.97230276  0.90036540  0.27165881     0.03700
N39         N  0.93993608  0.02579147  0.18493152     0.03400
C40         C  0.92733259  0.09633975  0.15791658     0.45100
N41         N  0.13104082  0.90352786  0.18784033    -0.23200
C42         C  0.09235265  0.06315944  0.29435101    -0.04100
N43         N  0.17084006  0.87173357  0.26164443    -0.44300
N44         N  0.90738291  0.06799328  0.18155960    -0.44500
C45         C  0.13973011  0.09127597  0.28341203     0.44800
N46         N  0.96724348  0.01755329  0.27483455     0.03700
N47         N  0.13459249  0.02103709  0.18834490    -0.23200
N48         N  0.09229260  0.90406113  0.27609364    -0.23700
N49         N  0.09980185  0.02219994  0.16584786     0.03300
H50         H  0.21052180  0.06099391  0.19615986     0.09200
H51         H  0.00127768  0.07903210  0.12829087     0.09300
N52         N  0.93230697  0.01846069  0.25239686    -0.23700
N53         N  0.97441151  0.90898331  0.16154576    -0.23300
N54         N  0.12679908  0.02226352  0.25550911     0.03700
C55         C  0.92879672  0.82711558  0.27812957     0.45100
C56         C  0.16247877  0.85997788  0.18385749    -0.04600
N57         N  0.97949161  0.02564515  0.16484120    -0.23300
H58         H  0.98034228  0.87171946  0.11749370     0.09200
N59         N  0.96953936  0.85703034  0.28904238    -0.44600
H60         H  0.19547803  0.84765504  0.19828123     0.09200
C61         C  0.16080050  0.07992682  0.15378498     0.44900
C62         C  0.10674096  0.86884281  0.29780743    -0.04100
Co63       Co  0.13164134  0.96282412  0.22176065     0.73800
N64         N  0.09933314  0.86394890  0.14678468    -0.44300
C65         C  0.90635715  0.07387163  0.28877002     0.45200
N66         N  0.15933023  0.06420767  0.25933865    -0.44300
Co67       Co  0.03724697  0.96535242  0.16395301     0.73900
C68         C  0.97474320  0.06866182  0.14680395    -0.04600
C69         C  0.90630664  0.85536310  0.25202207    -0.04200
N70         N  0.08741365  0.02101506  0.27567064    -0.23700
N71         N  0.89555951  0.87609568  0.17508322    -0.44400
H72         H  0.85625727  0.05897653  0.24601168     0.09200
C73         C  0.17422093  0.05635690  0.18283920    -0.04600
Cl74       Cl  0.03335345  0.96304606  0.21954376    -0.47600
C75         C  0.14119275  0.83438834  0.15669821     0.45000
H76         H  0.06589771  0.07279535  0.31302096     0.09200
N77         N  0.11482322  0.05605642  0.14412221    -0.44300
C78         C  0.26128995  0.62587941  0.12452702     0.82600
N79         N  0.24059681  0.67356294  0.13387843    -0.75700
C80         C  0.19436226  0.69259613  0.12163521     0.85000
N81         N  0.16848614  0.66385004  0.09987862    -0.75700
C82         C  0.18922576  0.61590933  0.09042395     0.85100
N83         N  0.23569986  0.59690441  0.10276861    -0.77400
C84         C  0.77861429  0.13773756  0.33270021     0.82600
N85         N  0.76130442  0.18671141  0.32290779    -0.75700
C86         C  0.71137218  0.20476474  0.33037262     0.85000
N87         N  0.67814448  0.17313810  0.34724363    -0.75700
C88         C  0.69513260  0.12386473  0.35695120     0.85100
N89         N  0.74534038  0.10611133  0.34954655    -0.77400
C90         C  0.19710679  0.30433387  0.35075132     0.82600
N91         N  0.17581497  0.25757302  0.34004126    -0.75700
C92         C  0.20208166  0.22957930  0.31817489     0.85000
N93         N  0.24934072  0.24825612  0.30699291    -0.75700
C94         C  0.27060361  0.29484908  0.31766728     0.85100
N95         N  0.24451913  0.32308114  0.33951766    -0.77400
C96         C  0.36941293  0.13173925  0.08350067     0.82600
N97         N  0.38643443  0.18201801  0.09146415    -0.75700
C98         C  0.35422338  0.21450147  0.10847712     0.85000
N99         N  0.30529054  0.19632551  0.11781966    -0.75700
C100        C  0.28796730  0.14632861  0.10974242     0.85100
N101        N  0.32021656  0.11395553  0.09274616    -0.77400
C102        C  0.66937299  0.56708155  0.28241662     0.44800
N103        N  0.59782451  0.55726078  0.25602801     0.03700
C104        C  0.43553455  0.33172611  0.25288803    -0.04200
H105        H  0.63331118  0.28637454  0.24145780     0.09200
C106        C  0.63752644  0.41181975  0.14403360    -0.04500
Co107      Co  0.53740750  0.45865188  0.27517655     0.74200
N108        N  0.59454466  0.36288533  0.24953912    -0.23700
Co109      Co  0.53713164  0.36751495  0.21572168     0.74100
C110        C  0.66598257  0.36399317  0.15409495     0.44900
N111        N  0.59122556  0.53580036  0.16567902     0.03300
N112        N  0.59685740  0.37484769  0.18222710     0.03400
N113        N  0.43745023  0.39297209  0.29105285    -0.44600
H114        H  0.65186460  0.49162638  0.31086585     0.09200
N115        N  0.59467028  0.39642583  0.27267231     0.03700
N116        N  0.47893668  0.37083390  0.18223911     0.03400
C117        C  0.42012131  0.34476230  0.14986313     0.45100
N118        N  0.59171132  0.56931332  0.18880893    -0.23200
C119        C  0.44569556  0.53433955  0.30034821    -0.04100
N120        N  0.64104910  0.58841424  0.25919580    -0.44300
N121        N  0.44553339  0.33092067  0.17556157    -0.44500
C122        C  0.42300930  0.58651199  0.29121437     0.44800
N123        N  0.47769348  0.40033007  0.27188099     0.03700
N124        N  0.47434925  0.56504978  0.19086805    -0.23200
N125        N  0.59733549  0.51681452  0.27557799    -0.23700
N126        N  0.47421908  0.52990945  0.16833353     0.03300
H127        H  0.41848461  0.62817839  0.20372993     0.09200
H128        H  0.43529326  0.41932299  0.11982961     0.09300
N129        N  0.47763714  0.36517171  0.24935020    -0.23700
N130        N  0.59534114  0.41537705  0.16275215    -0.23300
N131        N  0.47983846  0.56015036  0.25785809     0.03700
C132        C  0.65057897  0.33377680  0.28490938     0.45100
C133        C  0.62540241  0.61017475  0.18284459    -0.04600
N134        N  0.47831273  0.40993376  0.16203425    -0.23300
H135        H  0.64698387  0.43945268  0.12585937     0.09200
N136        N  0.62673929  0.37962159  0.29480484    -0.44600
H137        H  0.63022075  0.64608862  0.19650728     0.09200
C138        C  0.40260214  0.57573356  0.16165932     0.44900
C139        C  0.64094499  0.51984539  0.29324097    -0.04100
Co140      Co  0.53608616  0.56396052  0.22347939     0.73800
N141        N  0.62218088  0.55296387  0.14313314    -0.44300
C142        C  0.40953038  0.35045998  0.28044878     0.45200
N143        N  0.44685233  0.60009039  0.26503622    -0.44300
Co144      Co  0.53474813  0.47284612  0.16409377     0.73900
C145        C  0.44223562  0.39696897  0.14046313    -0.04600
C146        C  0.62884291  0.32234355  0.25511153    -0.04200
N147        N  0.48044727  0.52113985  0.27812632    -0.23700
N148        N  0.63901699  0.34281879  0.17782273    -0.44400
H149        H  0.42472480  0.29868184  0.23809254     0.09200
C150        C  0.43013314  0.59613067  0.18846298    -0.04600
Cl151      Cl  0.53637850  0.46574293  0.21963052    -0.47600
C152        C  0.64595112  0.59904406  0.15277051     0.45000
H153        H  0.44013128  0.51227743  0.32120875     0.09200
N154        N  0.43192745  0.53485913  0.15035048    -0.44300
N155        N  0.52921161  0.96917213  0.51591360    -0.34300
N156        N  0.58951812  0.02524677  0.46884749    -0.54800
N157        N  0.52640464  0.96846072  0.42214815    -0.34200
N158        N  0.47112307  0.90726568  0.46949410    -0.54800
C159        C  0.56665293  0.99453298  0.53312471     0.29300
C160        C  0.50408639  0.93224854  0.53352320     0.29300
C161        C  0.56419476  0.99288738  0.40471648     0.29300
C162        C  0.50143464  0.93038326  0.40508853     0.29300
C163        C  0.60797024  0.05283759  0.49316884     0.37900
C164        C  0.60679270  0.05224975  0.44411197     0.38000
C165        C  0.44456633  0.88959658  0.49431918     0.37900
C166        C  0.44350232  0.88868827  0.44524093     0.38000
C167        C  0.56480857  0.97385978  0.56224190    -0.19500
C168        C  0.52539577  0.93464711  0.56250074    -0.19500
C169        C  0.56246418  0.97075396  0.37592531    -0.19500
C170        C  0.52295348  0.93142914  0.37615816    -0.19500
C171        C  0.63767069  0.09723372  0.48381953    -0.20600
C172        C  0.63690557  0.09691755  0.45283867    -0.20600
C173        C  0.40020735  0.85903729  0.48576412    -0.20600
C174        C  0.39953014  0.85845116  0.45477149    -0.20600
C175        C  0.60077636  0.03729937  0.52368455    -0.15900
C176        C  0.46098532  0.89812033  0.52460665    -0.15900
C177        C  0.45887313  0.89582397  0.41465410    -0.15900
C178        C  0.59897538  0.03562869  0.41378486    -0.15900
H179        H  0.58908745  0.98597193  0.58140857     0.17000
H180        H  0.51359254  0.91083918  0.58192085     0.17000
H181        H  0.58714618  0.98173975  0.35670907     0.17000
H182        H  0.51148505  0.90638333  0.35716832     0.17000
H183        H  0.65809895  0.12664983  0.49784099     0.15300
H184        H  0.65671770  0.12612320  0.43841134     0.15300
H185        H  0.37148197  0.83885615  0.50032511     0.15300
H186        H  0.37014995  0.83773188  0.44087465     0.15300
H187        H  0.51940771  0.97830619  0.49381227     0.28500
H188        H  0.51675755  0.97881908  0.44412446     0.28500
N189        N  0.04413939  0.45734448  0.01590949    -0.34300
N190        N  0.98241081  0.40307771  0.96871048    -0.54800
N191        N  0.04408045  0.46146502  0.92205586    -0.34200
N192        N  0.10039789  0.52121069  0.96951890    -0.54800
C193        C  0.00622286  0.43242559  0.03303294     0.29300
C194        C  0.06891339  0.49456286  0.03350386     0.29300
C195        C  0.00601953  0.43732524  0.90468892     0.29300
C196        C  0.06825007  0.50031647  0.90517212     0.29300
C197        C  0.96385313  0.37528248  0.99293842     0.37900
C198        C  0.96425036  0.37692775  0.94387986     0.38000
C199        C  0.12721168  0.53873364  0.99428165     0.37900
C200        C  0.12680282  0.54137505  0.94523778     0.38000
C201        C  0.00775292  0.45335626  0.06209048    -0.19500
C202        C  0.04724126  0.49244575  0.06239823    -0.19500
C203        C  0.00679981  0.46039982  0.87611452    -0.19500
C204        C  0.04595770  0.50004410  0.87642189    -0.19500
C205        C  0.93327341  0.33159438  0.98344795    -0.20600
C206        C  0.93356911  0.33255894  0.95246704    -0.20600
C207        C  0.17054969  0.57068486  0.98567745    -0.20600
C208        C  0.17028510  0.57238371  0.95470308    -0.20600
C209        C  0.97130008  0.39037157  0.02349814    -0.15900
C210        C  0.11140918  0.52943298  0.02458078    -0.15900
C211        C  0.11061977  0.53509847  0.91473065    -0.15900
C212        C  0.97158773  0.39423188  0.91362351    -0.15900
H213        H  0.98290254  0.44180079  0.08113281     0.17000
H214        H  0.05852189  0.51670842  0.08173715     0.17000
H215        H  0.98160411  0.44993623  0.85701655     0.17000
H216        H  0.05660756  0.52588996  0.85761755     0.17000
H217        H  0.91246491  0.30230909  0.99738192     0.15300
H218        H  0.91291885  0.30408839  0.93795082     0.15300
H219        H  0.19906567  0.59123837  0.00020463     0.15300
H220        H  0.19862582  0.59446867  0.94078625     0.15300
H221        H  0.05412127  0.44811014  0.99381746     0.28500
H222        H  0.05430243  0.45052455  0.94387060     0.28500
N223        N  0.04490494  0.45941950  0.42153298    -0.34300
N224        N  0.10106642  0.40091795  0.46947852    -0.54800
N225        N  0.04261174  0.46367437  0.51493140    -0.34200
N226        N  0.98135680  0.51706651  0.46671403    -0.54800
C227        C  0.06964667  0.42031126  0.40530861     0.29300
C228        C  0.00619648  0.48131303  0.40379219     0.29300
C229        C  0.06607619  0.42567254  0.53268202     0.29300
C230        C  0.00328412  0.48800901  0.53130449     0.29300
C231        C  0.13030050  0.38409988  0.44546718     0.37900
C232        C  0.12840901  0.38531695  0.49441398     0.38000
C233        C  0.96506662  0.54368878  0.44158774     0.37900
C234        C  0.96396805  0.54628782  0.49064403     0.38000
C235        C  0.04668108  0.41758176  0.37675642    -0.19500
C236        C  0.00663514  0.45606344  0.37580414    -0.19500
C237        C  0.04182109  0.42641959  0.56092038    -0.19500
C238        C  0.00232114  0.46572596  0.56006731    -0.19500
C239        C  0.17619349  0.35719771  0.45516732    -0.20600
C240        C  0.17497511  0.35789028  0.48615269    -0.20600
C241        C  0.93658467  0.58968015  0.44959108    -0.20600
C242        C  0.93588913  0.59135098  0.48060920    -0.20600
C243        C  0.11421507  0.38918226  0.41500299    -0.15900
C244        C  0.97275353  0.52545254  0.41158986    -0.15900
C245        C  0.96985882  0.53114796  0.52134830    -0.15900
C246        C  0.11016917  0.39207090  0.52445006    -0.15900
H247        H  0.05788201  0.39093263  0.35841081     0.17000
H248        H  0.98106735  0.46475559  0.35658401     0.17000
H249        H  0.05167986  0.40138768  0.58019651     0.17000
H250        H  0.97593393  0.47667856  0.57856104     0.17000
H251        H  0.20697223  0.33838553  0.44137344     0.15300
H252        H  0.20476711  0.33978719  0.50088783     0.15300
H253        H  0.91784717  0.61876989  0.43464985     0.15300
H254        H  0.91647467  0.62205080  0.49420473     0.15300
H255        H  0.05607407  0.47266156  0.44284101     0.28500
H256        H  0.05452320  0.47431391  0.49330320     0.28500
N257        N  0.52377822  0.97072921  0.92212685    -0.34300
N258        N  0.46686621  0.02877327  0.97030665    -0.54800
N259        N  0.52565040  0.96616026  0.01592870    -0.34200
N260        N  0.58792142  0.91352225  0.96754961    -0.54800
C261        C  0.49696665  0.00787737  0.90548202     0.29300
C262        C  0.56078854  0.94703617  0.90397432     0.29300
C263        C  0.50027528  0.00236883  0.03401188     0.29300
C264        C  0.56371172  0.94058548  0.03263022     0.29300
C265        C  0.43904145  0.04771981  0.94624159     0.37900
C266        C  0.44051881  0.04603735  0.99525767     0.38000
C267        C  0.60640606  0.88833271  0.94242081     0.37900
C268        C  0.60736766  0.88572894  0.99153851     0.38000
C269        C  0.51662886  0.00716631  0.87611880    -0.19500
C270        C  0.55680731  0.96885105  0.87516923    -0.19500
C271        C  0.52179046  0.99890094  0.06288504    -0.19500
C272        C  0.56164808  0.95999581  0.06202804    -0.19500
C273        C  0.39506436  0.07765244  0.95596361    -0.20600
C274        C  0.39599092  0.07661935  0.98692485    -0.20600
C275        C  0.63845589  0.84479579  0.95051663    -0.20600
C276        C  0.63905240  0.84311522  0.98151326    -0.20600
C277        C  0.45410056  0.04111779  0.91563347    -0.15900
C278        C  0.59666329  0.90497215  0.91225428    -0.15900
C279        C  0.59929601  0.89936452  0.02236443    -0.15900
C280        C  0.45746500  0.03746899  0.02544981    -0.15900
H281        H  0.50335245  0.03161165  0.85725462     0.17000
H282        H  0.58032457  0.95823376  0.85544091     0.17000
H283        H  0.51005945  0.02203855  0.08256441     0.17000
H284        H  0.58643125  0.94758550  0.08092654     0.17000
H285        H  0.36559738  0.09853261  0.94220108     0.15300
H286        H  0.36727291  0.09653573  0.00159134     0.15300
H287        H  0.65940197  0.81713753  0.93564911     0.15300
H288        H  0.66060897  0.81385955  0.99509457     0.15300
H289        H  0.51556939  0.96041115  0.94427047     0.28500
H290        H  0.51618564  0.95783851  0.99367261     0.28500
C291        C  0.68344243  0.75090082  0.81134962     0.82600
N292        N  0.73003627  0.77095878  0.80015447    -0.75700
C293        C  0.75005055  0.81811020  0.81066716     0.85000
N294        N  0.72350157  0.84550396  0.83273967    -0.75700
C295        C  0.67654008  0.82554759  0.84408493     0.85100
N296        N  0.65658182  0.77798431  0.83344137    -0.77400
C297        C  0.79136776  0.29408580  0.83202903     0.82600
N298        N  0.82492384  0.32572799  0.84869409    -0.75700
C299        C  0.87491380  0.30758989  0.85628539     0.85000
N300        N  0.89137359  0.25791124  0.84696841    -0.75700
C301        C  0.85784828  0.22630135  0.83028579     0.85100
N302        N  0.80815361  0.24470692  0.82262648    -0.77400
C303        C  0.37143079  0.12761831  0.85182152     0.82600
N304        N  0.32464649  0.10804482  0.84018800    -0.75700
C305        C  0.29847206  0.13593274  0.81822299     0.85000
N306        N  0.31905610  0.18305155  0.80783006    -0.75700
C307        C  0.36566478  0.20262959  0.81940809     0.85100
N308        N  0.39202556  0.17492657  0.84138508    -0.77400
C309        C  0.21239800  0.71549947  0.83279159     0.82600
N310        N  0.18070338  0.68254447  0.84984572    -0.75700
C311        C  0.19825249  0.63233790  0.85760255     0.85000
N312        N  0.24748762  0.61508125  0.84805216    -0.75700
C313        C  0.27923059  0.64791690  0.83098201     0.85100
N314        N  0.26136662  0.69786582  0.82318304    -0.77400
C315        C  0.19886768  0.29960420  0.58309184     0.82600
N316        N  0.24790456  0.31795587  0.59228242    -0.75700
C317        C  0.28015777  0.28627968  0.60970099     0.85000
N318        N  0.26299275  0.23646188  0.61823885    -0.75700
C319        C  0.21422243  0.21776852  0.60894837     0.85100
N320        N  0.18203761  0.24953175  0.59152327    -0.77400
C321        C  0.69523988  0.19396155  0.62181430     0.82600
N322        N  0.74269586  0.17366334  0.63170958    -0.75700
C323        C  0.76210564  0.12702909  0.62010619     0.85000
N324        N  0.73390082  0.10022340  0.59846932    -0.75700
C325        C  0.68615943  0.12040414  0.58840089     0.85100
N326        N  0.66675888  0.16738988  0.60012859    -0.77400
C327        C  0.40975465  0.58415195  0.78815027     0.44800
N328        N  0.43850132  0.52700081  0.75550347     0.03700
C329        C  0.67614940  0.37847268  0.75903993    -0.04200
H330        H  0.69440151  0.58832463  0.73717865     0.09200
C331        C  0.61021220  0.55467994  0.63860936    -0.04500
Co332      Co  0.53902274  0.47055931  0.77536617     0.74200
N333        N  0.63257593  0.53079751  0.74980356    -0.23700
Co334      Co  0.63368668  0.46813044  0.71745402     0.74100
C335        C  0.66260136  0.57642679  0.64785737     0.44900
N336        N  0.47429343  0.52722025  0.66628650     0.03300
N337        N  0.63275697  0.52350144  0.68240721     0.03400
N338        N  0.61665400  0.38208852  0.79766147    -0.44600
H339        H  0.48243357  0.56838364  0.81939356     0.09200
N340        N  0.59633020  0.53088816  0.77179200     0.03700
N341        N  0.62850094  0.40548741  0.68509128     0.03400
C342        C  0.64001292  0.33439264  0.65840260     0.45100
N343        N  0.43804831  0.52823721  0.68825314    -0.23200
C344        C  0.47572383  0.36861288  0.79490468    -0.04100
N345        N  0.39773279  0.55952162  0.76191496    -0.44300
N346        N  0.66046023  0.36278698  0.68190091    -0.44500
C347        C  0.42796817  0.34082952  0.78418333     0.44800
N348        N  0.60152962  0.41374524  0.77495327     0.03700
N349        N  0.43409255  0.41079313  0.68854394    -0.23200
N350        N  0.47631978  0.52728274  0.77641771    -0.23700
N351        N  0.46876753  0.40981124  0.66599250     0.03300
H352        H  0.35794667  0.37120908  0.69625431     0.09200
H353        H  0.56614736  0.35213327  0.62882631     0.09300
N354        N  0.63638233  0.41300216  0.75247387    -0.23700
N355        N  0.59485704  0.52235222  0.66153061    -0.23300
N356        N  0.44172484  0.40916072  0.75581269     0.03700
C357        C  0.63981919  0.60403378  0.77843433     0.45100
C358        C  0.40666931  0.57185106  0.68446389    -0.04600
N359        N  0.58889605  0.40583187  0.66503162    -0.23300
H360        H  0.58968186  0.55854594  0.61715589     0.09200
N361        N  0.59912825  0.57404029  0.78929485    -0.44600
H362        H  0.37366341  0.58399215  0.69892670     0.09200
C363        C  0.40742636  0.35257206  0.65375733     0.44900
C364        C  0.46166305  0.56236620  0.79816880    -0.04100
Co365      Co  0.43714991  0.46873066  0.72204171     0.73800
N366        N  0.46970355  0.56823258  0.64730938    -0.44300
C367        C  0.66275103  0.35763066  0.78873234     0.45200
N368        N  0.40867697  0.36768393  0.75993215    -0.44300
Co369      Co  0.53156533  0.46640133  0.66413071     0.73900
C370        C  0.59298982  0.36251938  0.64719598    -0.04600
C371        C  0.66229381  0.57604332  0.75223218    -0.04200
N372        N  0.48113459  0.41034168  0.77596392    -0.23700
N373        N  0.67416064  0.55444922  0.67488517    -0.44400
H374        H  0.71256161  0.37286593  0.74593493     0.09200
C375        C  0.39426347  0.37575808  0.68293899    -0.04600
Cl376      Cl  0.53541458  0.46845422  0.71973856    -0.47600
C377        C  0.42792585  0.59772008  0.65741548     0.45000
H378        H  0.50194409  0.35919871  0.81371592     0.09200
N379        N  0.45348179  0.37633925  0.64414405    -0.44300
C380        C  0.79505972  0.63629017  0.60538271     0.82600
N381        N  0.82668774  0.60468936  0.58751849    -0.75700
C382        C  0.87680374  0.62176833  0.57930048     0.85000
N383        N  0.89533432  0.67040736  0.58923889    -0.75700
C384        C  0.86373195  0.70202948  0.60710271     0.85100
N385        N  0.81390553  0.68462744  0.61528468    -0.77400
C386        C  0.30589028  0.80479448  0.62334338     0.82600
N387        N  0.32613073  0.75710661  0.63303119    -0.75700
C388        C  0.37280646  0.73793964  0.62139187     0.85000
N389        N  0.39958710  0.76651879  0.59994850    -0.75700
C390        C  0.37939461  0.81441941  0.59014247     0.85100
N391        N  0.33246759  0.83365747  0.60187275    -0.77400
C392        C  0.89798206  0.86526910  0.78123310     0.44800
N393        N  0.97085343  0.87408609  0.75594607     0.03700
C394        C  0.13352374  0.09903086  0.75318880    -0.04200
H395        H  0.93423849  0.14444736  0.74212032     0.09200
C396        C  0.93066411  0.02082734  0.64444603    -0.04500
Co397      Co  0.03102759  0.97257396  0.77547511     0.74200
N398        N  0.97371360  0.06828072  0.75009744    -0.23700
Co399      Co  0.03109584  0.06415100  0.71627879     0.74100
C400        C  0.90256990  0.06885349  0.65453212     0.44900
N401        N  0.97702438  0.89586605  0.66589433     0.03300
N402        N  0.97130496  0.05716152  0.68282732     0.03400
N403        N  0.13154525  0.03759254  0.79124537    -0.44600
H404        H  0.91510942  0.94044415  0.80994809     0.09200
N405        N  0.97367872  0.03452274  0.77311689     0.03700
N406        N  0.08901046  0.06125754  0.68270914     0.03400
C407        C  0.14757815  0.08778537  0.65034331     0.45100
N408        N  0.97708044  0.86206283  0.68890248    -0.23200
C409        C  0.12284312  0.89749723  0.80062084    -0.04100
N410        N  0.92702340  0.84360199  0.75841464    -0.44300
N411        N  0.12227077  0.10132743  0.67611013    -0.44500
C412        C  0.14596035  0.84556332  0.79150712     0.44800
N413        N  0.09079964  0.03090526  0.77231663     0.03700
N414        N  0.09423241  0.86682432  0.69077605    -0.23200
N415        N  0.97107185  0.91442999  0.77555899    -0.23700
N416        N  0.09394230  0.90209137  0.66829041     0.03300
H417        H  0.14972883  0.80287472  0.70284935     0.09200
H418        H  0.13241057  0.01351625  0.62008013     0.09300
N419        N  0.09088257  0.06616842  0.74983549    -0.23700
N420        N  0.97265157  0.01674427  0.66327096    -0.23300
N421        N  0.08903629  0.87148239  0.75804768     0.03700
C422        C  0.91715629  0.09648630  0.78540151     0.45100
C423        C  0.94415695  0.82064071  0.68276940    -0.04600
N424        N  0.08958125  0.02234663  0.66238395    -0.23300
H425        H  0.92122260  0.99352814  0.62611389     0.09200
N426        N  0.94131966  0.05078897  0.79522545    -0.44600
H427        H  0.94008043  0.78444366  0.69627839     0.09200
C428        C  0.16487721  0.85557899  0.66075731     0.44900
C429        C  0.92663555  0.91194739  0.79259156    -0.04100
Co430      Co  0.03274630  0.86760097  0.72355066     0.73800
N431        N  0.94645700  0.87832689  0.64325923    -0.44300
C432        C  0.15989844  0.07975717  0.78054922     0.45200
N433        N  0.12230720  0.83178220  0.76528031    -0.44300
Co434      Co  0.03328213  0.95919025  0.66437436     0.73900
C435        C  0.12550099  0.03564236  0.64079047    -0.04600
C436        C  0.93900236  0.10842215  0.75569862    -0.04200
N437        N  0.08808569  0.91039836  0.77836070    -0.23700
N438        N  0.92946361  0.08958703  0.67839368    -0.44400
H439        H  0.14462496  0.13186936  0.73831643     0.09200
C440        C  0.13807389  0.83533997  0.68785665    -0.04600
Cl441      Cl  0.03203590  0.96587208  0.71991143    -0.47600
C442        C  0.92350535  0.83167131  0.65270321     0.45000
H443        H  0.12818704  0.91963555  0.82147493     0.09200
N444        N  0.13554217  0.89679328  0.64983987    -0.44300
C445        C  0.21478406  0.83802573  0.64773315    -0.10900
C446        C  0.25649581  0.82417253  0.63615694    -0.12500
C447        C  0.88430527  0.75179448  0.61959803    -0.10900
C448        C  0.90121636  0.79086384  0.63304073    -0.12500
C449        C  0.39405133  0.68814122  0.63258088    -0.10900
C450        C  0.40974182  0.64667693  0.64364709    -0.12500
C451        C  0.70389391  0.59972514  0.62891714    -0.10900
C452        C  0.74383045  0.61670624  0.61636569    -0.12500
C453        C  0.66083264  0.28472767  0.64644792    -0.10900
C454        C  0.67556574  0.24321965  0.63485017    -0.12500
C455        C  0.81191550  0.10600128  0.63145587    -0.10900
C456        C  0.85349981  0.08982115  0.64216407    -0.12500
C457        C  0.17526116  0.12739062  0.63220079    -0.10900
C458        C  0.19451647  0.16670241  0.62007925    -0.12500
C459        C  0.36851547  0.32646488  0.63449960    -0.10900
C460        C  0.33004740  0.30731359  0.62157532    -0.12500
C461        C  0.32961559  0.62820986  0.81892842    -0.10900
C462        C  0.36892941  0.60994290  0.80634871    -0.12500
C463        C  0.17290617  0.80614925  0.81014319    -0.10900
C464        C  0.19203442  0.76674155  0.82224739    -0.12500
C465        C  0.40529008  0.29260382  0.79670102    -0.10900
C466        C  0.38756809  0.25175009  0.80757546    -0.12500
C467        C  0.24959117  0.11545081  0.80541683    -0.10900
C468        C  0.20859991  0.09946473  0.79394622    -0.12500
C469        C  0.89353020  0.13663589  0.80484469    -0.10900
C470        C  0.87664081  0.17577121  0.81811850    -0.12500
C471        C  0.70156709  0.33310461  0.80862672    -0.10900
C472        C  0.74057367  0.31485444  0.82139803    -0.12500
C473        C  0.65346210  0.65631813  0.79000042    -0.10900
C474        C  0.66468242  0.69987519  0.80033380    -0.12500
C475        C  0.80099877  0.83656789  0.79949020    -0.10900
C476        C  0.84503449  0.84882525  0.79031818    -0.12500
C477        C  0.42446019  0.07179099  0.89314027    -0.10900
C478        C  0.39997717  0.09746077  0.87445816    -0.12500
C479        C  0.62553443  0.87728639  0.88811165    -0.10900
C480        C  0.64884078  0.85393011  0.86794580    -0.12500
C481        C  0.16465503  0.33342162  0.56465707    -0.10900
C482        C  0.13800794  0.36115839  0.54775478    -0.12500
C483        C  0.91054153  0.58805650  0.56041373    -0.10900
C484        C  0.93823173  0.56100494  0.54362988    -0.12500
C485        C  0.16465336  0.59721083  0.87574657    -0.10900
C486        C  0.13848633  0.56813500  0.89224594    -0.12500
C487        C  0.91051854  0.34094597  0.87409852    -0.10900
C488        C  0.93950606  0.36687042  0.89066417    -0.12500
C489        C  0.63081855  0.06673639  0.54674153    -0.10900
C490        C  0.65589586  0.09148584  0.56570921    -0.12500
C491        C  0.43211310  0.86914590  0.54814477    -0.10900
C492        C  0.40784221  0.84461959  0.56742193    -0.12500
C493        C  0.42977268  0.06865687  0.04872629    -0.10900
C494        C  0.40346615  0.09708647  0.06544528    -0.12500
C495        C  0.39292552  0.30518867  0.13146800    -0.10900
C496        C  0.37402893  0.26575822  0.11928796    -0.12500
C497        C  0.16887597  0.33442176  0.37348759    -0.10900
C498        C  0.14427317  0.35941657  0.39237220    -0.12500
C499        C  0.32000995  0.31453344  0.30521890    -0.10900
C500        C  0.36112684  0.33037460  0.29389298    -0.12500
C501        C  0.65957510  0.09014180  0.37458245    -0.10900
C502        C  0.63068087  0.06362713  0.39090729    -0.12500
C503        C  0.67451074  0.29350840  0.30424587    -0.10900
C504        C  0.69192079  0.25472779  0.31769362    -0.12500
C505        C  0.13913599  0.55962905  0.04806764    -0.10900
C506        C  0.16200272  0.58525358  0.06743167    -0.12500
C507        C  0.31045138  0.60684986  0.13769897    -0.10900
C508        C  0.35227191  0.59308064  0.14913972    -0.12500
C509        C  0.23794204  0.12579752  0.12170659    -0.10900
C510        C  0.19949834  0.10654918  0.13460872    -0.12500
C511        C  0.16193595  0.13988231  0.29560754    -0.10900
C512        C  0.17971475  0.18080330  0.30629971    -0.12500
C513        C  0.86789803  0.09852788  0.30883343    -0.10900
C514        C  0.82927286  0.11693126  0.32189383    -0.12500
C515        C  0.17310874  0.74278861  0.13231734    -0.10900
C516        C  0.15829822  0.78479426  0.14315633    -0.12500
C517        C  0.93976730  0.36204514  0.04640876    -0.10900
C518        C  0.91332060  0.33827741  0.06521048    -0.12500
C519        C  0.89057058  0.18700154  0.13423037    -0.10900
C520        C  0.90573260  0.14562028  0.14582980    -0.12500
C521        C  0.75625383  0.32647937  0.13063057    -0.10900
C522        C  0.71493719  0.34305805  0.14151063    -0.12500
C523        C  0.42998411  0.86388965  0.39207696    -0.10900
C524        C  0.40346019  0.83530803  0.37548534    -0.12500
C525        C  0.19924831  0.82119456  0.30612111    -0.10900
C526        C  0.23854044  0.80311008  0.31878381    -0.12500
C527        C  0.37734822  0.66586231  0.32172121    -0.10900
C528        C  0.39635884  0.62626214  0.30975529    -0.12500
C529        C  0.65890810  0.84284466  0.06145509    -0.10900
C530        C  0.63103090  0.86969109  0.04467671    -0.12500
C531        C  0.68600733  0.67875362  0.12001086    -0.10900
C532        C  0.66888098  0.63963380  0.13327000    -0.12500
C533        C  0.82618546  0.81391076  0.11680997    -0.10900
C534        C  0.86630990  0.83052327  0.12926624    -0.12500
C535        C  0.92148507  0.57677138  0.36708312    -0.10900
C536        C  0.94452526  0.55334908  0.38731589    -0.12500
C537        C  0.76614448  0.59598913  0.30107755    -0.10900
C538        C  0.72195672  0.58386745  0.29203662    -0.12500
C539        C  0.90491878  0.73031405  0.29913907    -0.10900
C540        C  0.91581053  0.77423158  0.28913902    -0.12500
loop_ 
_geom_bond_atom_site_label_1 
_geom_bond_atom_site_label_2 
_geom_bond_distance 
_geom_bond_site_symmetry_2 
_ccdc_geom_bond_type 
C1            N2   1.359       .  A
C1            N6   1.351       .  A
C1          C537   1.432       .  S
N2            C3   1.360       .  A
C3            N4   1.361       .  A
C3          C535   1.442       .  S
N4            C5   1.360       .  A
C5            N6   1.351       .  A
C5          C539   1.432       .  S
C7            N8   1.356       .  A
C7           N12   1.361       .  A
C7          C533   1.441       .  S
N8            C9   1.356       .  A
C9           N10   1.360       .  A
C9          C531   1.441       .  S
N10          C11   1.361       .  A
C11          N12   1.361       .  A
C11         C529   1.446       .  S
C13          N14   1.358       .  A
C13          N18   1.361       .  A
C13         C527   1.443       .  S
N14          C15   1.358       .  A
C15          N16   1.360       .  A
C15         C526   1.442       .  S
N16          C17   1.360       .  A
C17          N18   1.361       .  A
C17         C524   1.447       .  S
C19          N20   1.360       .  A
C19          N24   1.352       .  A
C19         C519   1.435       .  S
N20          C21   1.361       .  A
C21          N22   1.360       .  A
C21         C518   1.445       .  S
N22          C23   1.360       .  A
C23          N24   1.353       .  A
C23         C521   1.432       .  S
C25          N43   1.345       .  A
C25         C525   1.442       .  S
C25          C62   1.463       .  S
N26          N43   1.323       .  A
N26          N48   1.318       .  A
N26         Co63   2.070       .  S
C27          N52   1.337       .  A
C27          C65   1.452       .  S
C27          H72   1.082       .  S
H28          C69   1.081       .  S
C29          N53   1.346       .  A
C29          C33   1.463       .  S
C29          H58   1.082       .  S
Co30         N48   2.093       .  S
Co30         N38   2.068   1_455  S
Co30         N70   2.068   1_565  S
Co30         N46   2.091   1_465  S
Co30        Cl74   2.464       .  S
N31          C69   1.344       .  A
N31          N38   1.324       .  A
N31         Co32   2.110       .  S
Co32         N35   2.069       .  S
Co32         N52   2.068   1_565  S
Co32         N39   2.114   1_565  S
Co32        Cl74   2.438   1_655  S
C33          N71   1.345       .  A
C33         C534   1.441       .  S
N34          N41   1.324       .  A
N34          N64   1.322       .  A
N34         Co67   2.071       .  S
N35          N53   1.318       .  A
N35          N71   1.322       .  A
N36          C65   1.352       .  A
N36          N46   1.328       .  A
H37          C62   1.082       .  S
N38          N59   1.322       .  A
N39          N57   1.324       .  A
N39          N44   1.328       .  A
C40          N44   1.353       .  A
C40         C520   1.436       .  S
C40          C68   1.447       .  S
N41          C56   1.342       .  A
N41         Co63   2.100       .  S
C42          N70   1.337       .  A
C42          C45   1.448       .  S
C42          H76   1.082       .  S
C45          N66   1.349       .  A
C45         C511   1.429       .  S
N46          N52   1.318       .  A
N47          C73   1.337       .  A
N47          N49   1.317       .  A
N47         Co63   2.066   1_545  S
N48          C62   1.346       .  A
N49          N77   1.329       .  A
N49         Co67   2.095   1_545  S
H50          C73   1.082       .  S
H51          C68   1.082   1_455  S
N53         Co67   2.093   1_655  S
N54          N66   1.325       .  A
N54          N70   1.323       .  A
N54         Co63   2.100   1_545  S
C55          N59   1.342       .  A
C55         C540   1.433       .  S
C55          C69   1.461       .  S
C56          C75   1.458       .  S
C56          H60   1.081       .  S
N57          C68   1.336       .  A
N57         Co67   2.068   1_645  S
C61          N77   1.353       .  A
C61         C510   1.440       .  S
C61          C73   1.451       .  S
Co63        Cl74   2.438       .  S
N64          C75   1.343       .  A
C65         C513   1.439       .  S
Co67        Cl74   2.463       .  S
C75         C516   1.430       .  S
C78          N79   1.352       .  A
C78          N83   1.358       .  A
C78         C507   1.431       .  S
N79          C80   1.352       .  A
C80          N81   1.358       .  A
C80         C515   1.430       .  S
N81          C82   1.359       .  A
C82          N83   1.359       .  A
C82         C506   1.438       .  S
C84          N85   1.357       .  A
C84          N89   1.360       .  A
C84         C514   1.439       .  S
N85          C86   1.357       .  A
C86          N87   1.359       .  A
C86         C504   1.441       .  S
N87          C88   1.360       .  A
C88          N89   1.360       .  A
C88         C501   1.443       .  S
C90          N91   1.357       .  A
C90          N95   1.358       .  A
C90         C497   1.434       .  S
N91          C92   1.357       .  A
C92          N93   1.353       .  A
C92         C512   1.429       .  S
N93          C94   1.353       .  A
C94          N95   1.357       .  A
C94         C499   1.428       .  S
C96          N97   1.360       .  A
C96         N101   1.359       .  A
C96         C494   1.445       .  S
N97          C98   1.361       .  A
C98          N99   1.358       .  A
C98         C496   1.442       .  S
N99         C100   1.358       .  A
C100        N101   1.359       .  A
C100        C509   1.441       .  S
C102        N120   1.352       .  A
C102        C538   1.432       .  S
C102        C139   1.447       .  S
N103        N120   1.327       .  A
N103        N125   1.323       .  A
N103       Co140   2.108       .  S
C104        N129   1.341       .  A
C104        C142   1.456       .  S
C104        H149   1.081       .  S
H105        C146   1.082       .  S
C106        N130   1.337       .  A
C106        C110   1.448       .  S
C106        H135   1.082       .  S
Co107       N125   2.068       .  S
Co107       N115   2.098       .  S
Co107       N147   2.098       .  S
Co107       N123   2.072       .  S
Co107      Cl151   2.465       .  S
N108        C146   1.338       .  A
N108        N115   1.318       .  A
N108       Co109   2.068       .  S
Co109       N112   2.103       .  S
Co109       N129   2.096       .  S
Co109       N116   2.070       .  S
Co109      Cl151   2.438       .  S
C110        N148   1.351       .  A
C110        C522   1.432       .  S
N111        N118   1.318       .  A
N111        N141   1.328       .  A
N111       Co144   2.095       .  S
N112        N130   1.323       .  A
N112        N148   1.326       .  A
N113        C142   1.344       .  A
N113        N123   1.322       .  A
H114        C139   1.082       .  S
N115        N136   1.328       .  A
N116        N134   1.318       .  A
N116        N121   1.322       .  A
C117        N121   1.345       .  A
C117        C495   1.441       .  S
C117        C145   1.464       .  S
N118        C133   1.338       .  A
N118       Co140   2.067       .  S
C119        N147   1.348       .  A
C119        C122   1.465       .  S
C119        H153   1.082       .  S
C122        N143   1.343       .  A
C122        C528   1.442       .  S
N123        N129   1.324       .  A
N124        C150   1.343       .  A
N124        N126   1.323       .  A
N124       Co140   2.104       .  S
N125        C139   1.336       .  A
N126        N154   1.322       .  A
N126       Co144   2.069       .  S
H127        C150   1.081       .  S
H128        C145   1.082       .  S
N130       Co144   2.070       .  S
N131        N143   1.322       .  A
N131        N147   1.318       .  A
N131       Co140   2.066       .  S
C132        N136   1.352       .  A
C132        C503   1.441       .  S
C132        C146   1.453       .  S
C133        C152   1.452       .  S
C133        H137   1.082       .  S
N134        C145   1.347       .  A
N134       Co144   2.095       .  S
C138        N154   1.343       .  A
C138        C508   1.431       .  S
C138        C150   1.459       .  S
Co140      Cl151   2.437       .  S
N141        C152   1.353       .  A
C142        C500   1.428       .  S
Co144      Cl151   2.465       .  S
C152        C532   1.441       .  S
N155        C160   1.353       .  A
N155        C159   1.355       .  A
N155        H187   1.033       .  S
N156        C163   1.354       .  A
N156        C164   1.352       .  A
N157        C162   1.357       .  A
N157        C161   1.356       .  A
N157        H188   1.034       .  S
N158        C165   1.353       .  A
N158        C166   1.354       .  A
C159        C167   1.387       .  A
C159        C175   1.418   1_565  A
C160        C176   1.418       .  A
C160        C168   1.388       .  A
C161        C169   1.388       .  A
C161        C178   1.422   1_565  A
C162        C177   1.422       .  A
C162        C170   1.387       .  A
C163        C175   1.416       .  A
C163        C171   1.386       .  A
C164        C178   1.417       .  A
C164        C172   1.389       .  A
C165        C173   1.387       .  A
C165        C176   1.417       .  A
C166        C174   1.388       .  A
C166        C177   1.417       .  A
C167        H179   1.082       .  S
C167        C168   1.377       .  A
C168        H180   1.082       .  S
C169        H181   1.082       .  S
C169        C170   1.381       .  A
C170        H182   1.082       .  S
C171        H183   1.082       .  S
C171        C172   1.371       .  A
C172        H184   1.082       .  S
C173        H185   1.082       .  S
C173        C174   1.372       .  A
C174        H186   1.082       .  S
C175        C489   1.458       .  S
C176        C491   1.453       .  S
C177        C523   1.461       .  S
C178        C502   1.457       .  S
N189        C194   1.353       .  A
N189        C193   1.356       .  A
N189        H221   1.034   1_554  S
N190        C197   1.354       .  A
N190        C198   1.353       .  A
N191        C196   1.357       .  A
N191        C195   1.356       .  A
N191        H222   1.034       .  S
N192        C199   1.353       .  A
N192        C200   1.354       .  A
C193        C201   1.387       .  A
C193        C209   1.418   1_455  A
C194        C210   1.418       .  A
C194        C202   1.388       .  A
C195        C203   1.388       .  A
C195        C212   1.422   1_455  A
C196        C211   1.422       .  A
C196        C204   1.387       .  A
C197        C209   1.415   1_556  A
C197        C205   1.386       .  A
C198        C212   1.418       .  A
C198        C206   1.389       .  A
C199        C207   1.387       .  A
C199        C210   1.416   1_556  A
C200        C208   1.388       .  A
C200        C211   1.417       .  A
C201        H213   1.082   1_455  S
C201        C202   1.376       .  A
C202        H214   1.082       .  S
C203        H215   1.082   1_455  S
C203        C204   1.380       .  A
C204        H216   1.082       .  S
C205        H217   1.082       .  S
C205        C206   1.372       .  A
C206        H218   1.082       .  S
C207        H219   1.082   1_556  S
C207        C208   1.372       .  A
C208        H220   1.082       .  S
C209        C517   1.460       .  S
C210        C505   1.453       .  S
C211        C486   1.461       .  S
C212        C488   1.457       .  S
N223        C228   1.353       .  A
N223        C227   1.352       .  A
N223        H255   1.036       .  S
N224        C231   1.352       .  A
N224        C232   1.351       .  A
N225        C230   1.356       .  A
N225        C229   1.357       .  A
N225        H256   1.036       .  S
N226        C233   1.354       .  A
N226        C234   1.353       .  A
C227        C235   1.388       .  A
C227        C243   1.414       .  A
C228        C244   1.414   1_455  A
C228        C236   1.388       .  A
C229        C237   1.387       .  A
C229        C246   1.421       .  A
C230        C245   1.422   1_455  A
C230        C238   1.388       .  A
C231        C243   1.412       .  A
C231        C239   1.386       .  A
C232        C246   1.414       .  A
C232        C240   1.388       .  A
C233        C241   1.386       .  A
C233        C244   1.415       .  A
C234        C242   1.388       .  A
C234        C245   1.417       .  A
C235        H247   1.082       .  S
C235        C236   1.376       .  A
C236        H248   1.082   1_455  S
C237        H249   1.082       .  S
C237        C238   1.381       .  A
C238        H250   1.082   1_455  S
C239        H251   1.082       .  S
C239        C240   1.372       .  A
C240        H252   1.082       .  S
C241        H253   1.082       .  S
C241        C242   1.374       .  A
C242        H254   1.082       .  S
C243        C498   1.450       .  S
C244        C536   1.456       .  S
C245        C484   1.461       .  S
C246        C482   1.458       .  S
N257        C262   1.353       .  A
N257        C261   1.353   1_565  A
N257        H289   1.033       .  S
N258        C265   1.353       .  A
N258        C266   1.352       .  A
N259        C264   1.355       .  A
N259        C263   1.356   1_565  A
N259        H290   1.033   1_554  S
N260        C267   1.355       .  A
N260        C268   1.354       .  A
C261        C269   1.388       .  A
C261        C277   1.417       .  A
C262        C278   1.417       .  A
C262        C270   1.388       .  A
C263        C271   1.387   1_545  A
C263        C280   1.423       .  A
C264        C279   1.423       .  A
C264        C272   1.388       .  A
C265        C277   1.415       .  A
C265        C273   1.387       .  A
C266        C280   1.417   1_556  A
C266        C274   1.388       .  A
C267        C275   1.386       .  A
C267        C278   1.418       .  A
C268        C276   1.388       .  A
C268        C279   1.420   1_556  A
C269        H281   1.082       .  S
C269        C270   1.376   1_545  A
C270        H282   1.082       .  S
C271        H283   1.082   1_565  S
C271        C272   1.380       .  A
C272        H284   1.082       .  S
C273        H285   1.082       .  S
C273        C274   1.371       .  A
C274        H286   1.082   1_556  S
C275        H287   1.082       .  S
C275        C276   1.373       .  A
C276        H288   1.082       .  S
C277        C477   1.452       .  S
C278        C479   1.457       .  S
C279        C530   1.461       .  S
C280        C493   1.459       .  S
C291        N292   1.351       .  A
C291        N296   1.360       .  A
C291        C474   1.431       .  S
N292        C293   1.351       .  A
C293        N294   1.359       .  A
C293        C475   1.431       .  S
N294        C295   1.360       .  A
C295        N296   1.361       .  A
C295        C480   1.442       .  S
C297        N298   1.360       .  A
C297        N302   1.357       .  A
C297        C472   1.439       .  S
N298        C299   1.360       .  A
C299        N300   1.360       .  A
C299        C487   1.443       .  S
N300        C301   1.359       .  A
C301        N302   1.356       .  A
C301        C470   1.439       .  S
C303        N304   1.358       .  A
C303        N308   1.358       .  A
C303        C478   1.436       .  S
N304        C305   1.357       .  A
C305        N306   1.353       .  A
C305        C467   1.430       .  S
N306        C307   1.353       .  A
C307        N308   1.358       .  A
C307        C466   1.431       .  S
C309        N310   1.361       .  A
C309        N314   1.358       .  A
C309        C464   1.443       .  S
N310        C311   1.361       .  A
C311        N312   1.360       .  A
C311        C485   1.447       .  S
N312        C313   1.360       .  A
C313        N314   1.358       .  A
C313        C461   1.443       .  S
C315        N316   1.360       .  A
C315        N320   1.360       .  A
C315        C481   1.444       .  S
N316        C317   1.360       .  A
C317        N318   1.358       .  A
C317        C460   1.441       .  S
N318        C319   1.358       .  A
C319        N320   1.360       .  A
C319        C458   1.442       .  S
C321        N322   1.352       .  A
C321        N326   1.361       .  A
C321        C454   1.434       .  S
N322        C323   1.352       .  A
C323        N324   1.359       .  A
C323        C455   1.431       .  S
N324        C325   1.360       .  A
C325        N326   1.361       .  A
C325        C490   1.443       .  S
C327        N345   1.345       .  A
C327        C462   1.442       .  S
C327        C364   1.464       .  S
N328        N345   1.323       .  A
N328        N350   1.317       .  A
N328       Co365   2.068       .  S
C329        N354   1.337       .  A
C329        C367   1.450       .  S
C329        H374   1.082       .  S
H330        C371   1.081       .  S
C331        N355   1.347       .  A
C331        C335   1.464       .  S
C331        H360   1.082       .  S
Co332       N350   2.095       .  S
Co332       N340   2.067       .  S
Co332       N372   2.069       .  S
Co332       N348   2.093       .  S
Co332      Cl376   2.464       .  S
N333        C371   1.345       .  A
N333        N340   1.324       .  A
N333       Co334   2.111       .  S
Co334       N337   2.070       .  S
Co334       N354   2.066       .  S
Co334       N341   2.115       .  S
Co334      Cl376   2.438       .  S
C335        N373   1.345       .  A
C335        C451   1.443       .  S
N336        N343   1.324       .  A
N336        N366   1.322       .  A
N336       Co369   2.071       .  S
N337        N355   1.318       .  A
N337        N373   1.323       .  A
N338        C367   1.352       .  A
N338        N348   1.328       .  A
H339        C364   1.082       .  S
N340        N361   1.321       .  A
N341        N359   1.324       .  A
N341        N346   1.328       .  A
C342        N346   1.354       .  A
C342        C453   1.435       .  S
C342        C370   1.445       .  S
N343        C358   1.341       .  A
N343       Co365   2.099       .  S
C344        N372   1.337       .  A
C344        C347   1.449       .  S
C344        H378   1.082       .  S
C347        N368   1.350       .  A
C347        C465   1.431       .  S
N348        N354   1.318       .  A
N349        C375   1.337       .  A
N349        N351   1.317       .  A
N349       Co365   2.064       .  S
N350        C364   1.347       .  A
N351        N379   1.329       .  A
N351       Co369   2.095       .  S
H352        C375   1.082       .  S
H353        C370   1.082       .  S
N355       Co369   2.095       .  S
N356        N368   1.326       .  A
N356        N372   1.323       .  A
N356       Co365   2.103       .  S
C357        N361   1.341       .  A
C357        C473   1.432       .  S
C357        C371   1.461       .  S
C358        C377   1.456       .  S
C358        H362   1.081       .  S
N359        C370   1.335       .  A
N359       Co369   2.066       .  S
C363        N379   1.353       .  A
C363        C459   1.440       .  S
C363        C375   1.451       .  S
Co365      Cl376   2.438       .  S
N366        C377   1.344       .  A
C367        C471   1.439       .  S
Co369      Cl376   2.464       .  S
C377        C450   1.429       .  S
C380        N381   1.361       .  A
C380        N385   1.357       .  A
C380        C452   1.443       .  S
N381        C382   1.361       .  A
C382        N383   1.361       .  A
C382        C483   1.447       .  S
N383        C384   1.361       .  A
C384        N385   1.357       .  A
C384        C447   1.443       .  S
C386        N387   1.352       .  A
C386        N391   1.359       .  A
C386        C446   1.432       .  S
N387        C388   1.352       .  A
C388        N389   1.357       .  A
C388        C449   1.429       .  S
N389        C390   1.358       .  A
C390        N391   1.360       .  A
C390        C492   1.438       .  S
C392        N410   1.351       .  A
C392        C476   1.431       .  S
C392        C429   1.446       .  S
N393        N410   1.327       .  A
N393        N415   1.323       .  A
N393       Co430   2.106   1_655  S
C394        N419   1.342       .  A
C394        C432   1.457       .  S
C394        H439   1.081       .  S
H395        C436   1.082       .  S
C396        N420   1.337       .  A
C396        C400   1.448       .  S
C396        H425   1.082   1_545  S
Co397       N415   2.068   1_455  S
Co397       N405   2.094   1_465  S
Co397       N437   2.094       .  S
Co397       N413   2.073   1_565  S
Co397      Cl441   2.465       .  S
N398        C436   1.338       .  A
N398        N405   1.318       .  A
N398       Co399   2.067   1_655  S
Co399       N402   2.102   1_455  S
Co399       N419   2.099       .  S
Co399       N406   2.067       .  S
Co399      Cl441   2.438   1_545  S
C400        N438   1.350       .  A
C400        C456   1.431       .  S
N401        N408   1.318       .  A
N401        N431   1.329       .  A
N401       Co434   2.099   1_655  S
N402        N420   1.323       .  A
N402        N438   1.326       .  A
N403        C432   1.344       .  A
N403        N413   1.322       .  A
H404        C429   1.081       .  S
N405        N426   1.328       .  A
N406        N424   1.318       .  A
N406        N411   1.322       .  A
C407        N411   1.344       .  A
C407        C457   1.441       .  S
C407        C435   1.464       .  S
N408        C423   1.338       .  A
N408       Co430   2.067   1_655  S
C409        N437   1.347       .  A
C409        C412   1.464       .  S
C409        H443   1.082       .  S
C412        N433   1.344       .  A
C412        C463   1.442       .  S
N413        N419   1.324       .  A
N414        C440   1.344       .  A
N414        N416   1.324       .  A
N414       Co430   2.104       .  S
N415        C429   1.336       .  A
N416        N444   1.322       .  A
N416       Co434   2.071       .  S
H417        C440   1.081       .  S
H418        C435   1.082       .  S
N420       Co434   2.071   1_645  S
N421        N433   1.322       .  A
N421        N437   1.318       .  A
N421       Co430   2.070       .  S
C422        N426   1.352       .  A
C422        C469   1.439       .  S
C422        C436   1.452       .  S
C423        C442   1.452       .  S
C423        H427   1.082       .  S
N424        C435   1.347       .  A
N424       Co434   2.097   1_545  S
C428        N444   1.343       .  A
C428        C445   1.432       .  S
C428        C440   1.460       .  S
Co430      Cl441   2.438       .  S
N431        C442   1.353       .  A
C432        C468   1.430       .  S
Co434      Cl441   2.464       .  S
C442        C448   1.443       .  S
C445        C446   1.204       .  T
C447        C448   1.210       .  T
C449        C450   1.202       .  T
C451        C452   1.210       .  T
C453        C454   1.205       .  T
C455        C456   1.203       .  T
C457        C458   1.209       .  T
C459        C460   1.209       .  T
C461        C462   1.210       .  T
C463        C464   1.210       .  T
C465        C466   1.203       .  T
C467        C468   1.203       .  T
C469        C470   1.208       .  T
C471        C472   1.208       .  T
C473        C474   1.204       .  T
C475        C476   1.203       .  T
C477        C478   1.207       .  T
C479        C480   1.210       .  T
C481        C482   1.211       .  T
C483        C484   1.213       .  T
C485        C486   1.213       .  T
C487        C488   1.210       .  T
C489        C490   1.211       .  T
C491        C492   1.208       .  T
C493        C494   1.212       .  T
C495        C496   1.209       .  T
C497        C498   1.206       .  T
C499        C500   1.201       .  T
C501        C502   1.211       .  T
C503        C504   1.209       .  T
C505        C506   1.207       .  T
C507        C508   1.203       .  T
C509        C510   1.209       .  T
C511        C512   1.202       .  T
C513        C514   1.208       .  T
C515        C516   1.203       .  T
C517        C518   1.212       .  T
C519        C520   1.206       .  T
C521        C522   1.204       .  T
C523        C524   1.213       .  T
C525        C526   1.210       .  T
C527        C528   1.210       .  T
C529        C530   1.213       .  T
C531        C532   1.209       .  T
C533        C534   1.209       .  T
C535        C536   1.210       .  T
C537        C538   1.204       .  T
C539        C540   1.204       .  T
