geometry optimzed in LAMMPS
_audit_creation_date              2020-12-01 
_audit_creation_method            'lammps2cif' 
_symmetry_space_group_name_H-M    'P1' 
_symmetry_Int_Tables_number       1 
_symmetry_cell_setting            triclinic 
loop_ 
_symmetry_equiv_pos_as_xyz 
  x,y,z 
_cell_length_a                    37.73663929 
_cell_length_b                    37.43087906939937 
_cell_length_c                    68.24124771054208 
_cell_angle_alpha                 90.27598732792768 
_cell_angle_beta                  90.03934396134329 
_cell_angle_gamma                 90.01834869967216 
loop_ 
_atom_site_label 
_atom_site_type_symbol 
_atom_site_fract_x 
_atom_site_fract_y 
_atom_site_fract_z 
_atom_site_charge 
C1          C  0.43296290  0.30346019  0.34974862     0.80400
N2          N  0.40924832  0.28305194  0.33964391    -0.77900
C3          C  0.40672124  0.28604619  0.31982865     0.82900
N4          N  0.42823139  0.30904676  0.31017570    -0.77800
C5          C  0.45084869  0.33042262  0.32024138     0.83000
N6          N  0.45333657  0.32741715  0.33996910    -0.79500
C7          C  0.41983357  0.31504906  0.18454516     0.80400
N8          N  0.44447548  0.33391272  0.19477411    -0.77900
C9          C  0.44808967  0.32914615  0.21436099     0.82900
N10         N  0.42721106  0.30521202  0.22373173    -0.77800
C11         C  0.40189307  0.28700395  0.21370633     0.83000
N12         N  0.39811870  0.29205379  0.19413570    -0.79500
C13         C  0.19956524  0.32944431  0.34759943     0.80400
N14         N  0.17485185  0.34761352  0.33727089    -0.77900
C15         C  0.16733674  0.33862900  0.31850466     0.82900
N16         N  0.18491118  0.31113266  0.30978726    -0.77800
C17         C  0.21056730  0.29330515  0.31980088     0.83000
N18         N  0.21772048  0.30244317  0.33872732    -0.79500
C19         C  0.42923888  0.05442474  0.18360134     0.80400
N20         N  0.40556444  0.07500728  0.19355753    -0.77900
C21         C  0.40253137  0.07221948  0.21333239     0.82900
N22         N  0.42362939  0.04900016  0.22320281    -0.77800
C23         C  0.44614122  0.02714788  0.21325227     0.83000
N24         N  0.44901300  0.03013410  0.19351970    -0.79500
C25         C  0.47562066  0.35324151  0.30963846     0.42700
N26         N  0.01733506  0.36725823  0.28993394     0.01600
C27         C  0.11805225  0.02118572  0.28889752    -0.06300
H28         H  0.98213461  0.04076621  0.27998550     0.07000
C29         C  0.98853557  0.47181304  0.21668812    -0.06700
Co30       Co  0.05510118  0.43366032  0.30241001     0.74200
N31         N  0.01506645  0.49532546  0.28643300    -0.25900
Co32       Co  0.05306974  0.49488958  0.26457766     0.74100
C33         C  0.97085098  0.00408282  0.22393951     0.42800
N34         N  0.01671643  0.38582362  0.23185198     0.01200
N35         N  0.01379044  0.49118401  0.24313632     0.01300
N36         N  0.11732520  0.48182812  0.31392477    -0.46700
H37         H  0.98691861  0.40171231  0.32959642     0.07000
N38         N  0.01570324  0.47238566  0.30105630     0.01600
N39         N  0.09138254  0.49308951  0.24280013     0.01300
C40         C  0.13383023  0.50666773  0.22359454     0.42900
N41         N  0.01727376  0.36283551  0.24646481    -0.25300
C42         C  0.12149879  0.39032310  0.31521055    -0.06200
N43         N  0.99267502  0.34287705  0.29322461    -0.46400
N44         N  0.11633212  0.01727195  0.23983899    -0.46600
C45         C  0.13920393  0.35801856  0.30831664     0.42700
N46         N  0.09263242  0.47429207  0.30074067     0.01500
N47         N  0.09451477  0.36526718  0.24658874    -0.25300
N48         N  0.01760038  0.39287566  0.30329376    -0.25800
N49         N  0.09386349  0.38816443  0.23194506     0.01200
H50         H  0.12950791  0.32179712  0.25398001     0.07100
H51         H  0.12348105  0.45774185  0.20380078     0.07100
N52         N  0.09209025  0.49726209  0.28612890    -0.25900
N53         N  0.01452020  0.46568213  0.22971050    -0.25500
N54         N  0.09495998  0.36875771  0.28969752     0.01600
C55         C  0.97254408  0.00717793  0.30758277     0.42900
C56         C  0.99161790  0.33859948  0.24365925    -0.06700
N57         N  0.09147617  0.46735734  0.22952257    -0.25500
H58         H  0.98336063  0.45626036  0.20359598     0.07100
N59         N  0.99077976  0.47879380  0.31427213    -0.46700
H60         H  0.98639042  0.31573086  0.25284646     0.07100
C61         C  0.13944733  0.35577014  0.22657959     0.42800
C62         C  0.99233730  0.38606580  0.31657429    -0.06200
Co63       Co  0.05593046  0.36523232  0.26818679     0.73800
N64         N  0.99214045  0.37816604  0.21862093    -0.46400
C65         C  0.13460008  0.51085279  0.30723561     0.43000
N66         N  0.12123222  0.34586186  0.29256747    -0.46400
Co67       Co  0.05408285  0.42663083  0.23026046     0.73900
C68         C  0.11738009  0.47376848  0.21659086    -0.06700
C69         C  0.98846464  0.01826462  0.28923591    -0.06300
N70         N  0.09453072  0.39490481  0.30272937    -0.25800
N71         N  0.98825305  0.01475807  0.24019418    -0.46600
H72         H  0.12330062  0.04407657  0.27973110     0.07100
C73         C  0.12253727  0.34375793  0.24448603    -0.06700
Cl74       Cl  0.05446438  0.43010439  0.26635763    -0.49700
C75         C  0.47517288  0.34889846  0.22523867     0.42800
H76         H  0.12746750  0.40708173  0.32774249     0.07000
N77         N  0.12005250  0.38296688  0.21933504    -0.46400
C78         C  0.18967997  0.31659324  0.18562524     0.80400
N79         N  0.16841341  0.33874377  0.19613992    -0.77900
C80         C  0.16685160  0.33645263  0.21587287     0.82900
N81         N  0.18691205  0.31202269  0.22528652    -0.77800
C82         C  0.20945654  0.29075765  0.21513257     0.83000
N83         N  0.21059465  0.29269967  0.19523956    -0.79500
C84         C  0.41377267  0.03872999  0.34723552     0.80400
N85         N  0.43866094  0.01963053  0.33734234    -0.77900
C86         C  0.94469939  0.02610524  0.31812166     0.82900
N87         N  0.42600891  0.05176014  0.30879866    -0.77800
C88         C  0.40063310  0.07038637  0.31841313     0.83000
N89         N  0.39446898  0.06387558  0.33763767    -0.79500
C90         C  0.18381119  0.04962498  0.34903745     0.80400
N91         N  0.20653540  0.07188116  0.33959906    -0.77900
C92         C  0.20618244  0.07411183  0.31976600     0.82900
N93         N  0.18271182  0.05434221  0.30925854    -0.77800
C94         C  0.16086515  0.03110509  0.31847458     0.83000
N95         N  0.16143453  0.02888439  0.33830038    -0.79500
C96         C  0.19093636  0.04344501  0.18488026     0.80400
N97         N  0.16694074  0.02289780  0.19441764    -0.77900
C98         C  0.16085255  0.02787247  0.21379255     0.82900
N99         N  0.17906065  0.05333977  0.22380320    -0.77800
C100        C  0.20399752  0.07321089  0.21455583     0.83000
N101        N  0.20982403  0.06831384  0.19507771    -0.79500
C102        C  0.23011307  0.26393326  0.31031178     0.42700
N103        N  0.24312868  0.22103319  0.29065516     0.01600
C104        C  0.39263212  0.11496770  0.28982147    -0.06300
H105        H  0.41712064  0.25026723  0.28062928     0.07000
C106        C  0.34785152  0.24342220  0.21689961    -0.06700
Co107      Co  0.30775515  0.18124691  0.30331734     0.74200
N108        N  0.37036088  0.21927572  0.28697737    -0.25900
Co109      Co  0.36879884  0.17984362  0.26530699     0.74100
C110        C  0.38029426  0.26045776  0.22382095     0.42800
N111        N  0.26266919  0.21902402  0.23217862     0.01200
N112        N  0.36666572  0.21832673  0.24344515     0.01300
N113        N  0.35337287  0.11680559  0.31495466    -0.46700
H114        H  0.27827225  0.25211926  0.33000986     0.07000
N115        N  0.34780954  0.21953633  0.30177307     0.01600
N116        N  0.36605261  0.14001975  0.24375758     0.01300
C117        C  0.37969935  0.09721359  0.22415598     0.42900
N118        N  0.24007334  0.22007499  0.24694391    -0.25300
C119        C  0.26082852  0.11719860  0.31698578    -0.06200
N120        N  0.21954043  0.24662913  0.29391780    -0.46400
N121        N  0.38999059  0.11477693  0.24051032    -0.46600
C122        C  0.22839721  0.10035637  0.30983262     0.42700
N123        N  0.34676899  0.14193751  0.30182555     0.01500
N124        N  0.23827948  0.14233153  0.24706197    -0.25300
N125        N  0.26853786  0.22050142  0.30396804    -0.25800
N126        N  0.26129152  0.14148288  0.23249476     0.01200
H127        H  0.19085638  0.11205839  0.25311714     0.07100
H128        H  0.33201919  0.10905971  0.20411559     0.07100
N129        N  0.36959596  0.14159850  0.28717116    -0.25900
N130        N  0.34139104  0.21777337  0.23007478    -0.25500
N131        N  0.24239545  0.14282789  0.29051978     0.01600
C132        C  0.38459317  0.26134605  0.30847357     0.42900
C133        C  0.21762834  0.24721191  0.24422046    -0.06700
N134        N  0.34073213  0.14029216  0.23039884    -0.25500
H135        H  0.33225539  0.24883827  0.20394653     0.07100
N136        N  0.35585573  0.24385826  0.31526029    -0.46700
H137        H  0.19542040  0.25395917  0.25354083     0.07100
C138        C  0.22400443  0.10024423  0.22556114     0.42800
C139        C  0.26248585  0.24659978  0.31710975    -0.06200
Co140      Co  0.24033055  0.18161280  0.26883257     0.73800
N141        N  0.25634847  0.24393814  0.21887596    -0.46400
C142        C  0.38176191  0.09870271  0.30813603     0.43000
N143        N  0.21835348  0.11773548  0.29351974    -0.46400
Co144      Co  0.30145377  0.17954866  0.23087613     0.73900
C145        C  0.34731239  0.11438502  0.21721849    -0.06700
C146        C  0.39431335  0.24517484  0.28979426    -0.06300
N147        N  0.26762331  0.14301493  0.30393760    -0.25800
N148        N  0.39059786  0.24345409  0.24022283    -0.46600
H149        H  0.41500496  0.10879822  0.28050200     0.07100
C150        C  0.21387158  0.11686738  0.24406581    -0.06700
Cl151      Cl  0.30457920  0.18055889  0.26708952    -0.49700
C152        C  0.22852539  0.26285654  0.22570020     0.42800
H153        H  0.27621758  0.11150295  0.32997827     0.07000
N154        N  0.25344738  0.11693869  0.21911133    -0.46400
N155        N  0.30070053  0.44675938  0.54960458    -0.36400
N156        N  0.33860239  0.48864671  0.52042087    -0.57000
N157        N  0.29270279  0.45649371  0.49105240    -0.36400
N158        N  0.25197628  0.41832321  0.51984543    -0.57000
C159        C  0.32049793  0.46857897  0.56115058     0.27200
C160        C  0.27483125  0.43250966  0.56091083     0.27200
C161        C  0.30865022  0.48271776  0.48088395     0.27200
C162        C  0.26431580  0.44589544  0.48051353     0.27200
C163        C  0.36101487  0.49285876  0.53566351     0.35800
C164        C  0.35698625  0.49709038  0.50411764     0.35800
C165        C  0.24295302  0.39751764  0.53510777     0.35800
C166        C  0.24037960  0.40144434  0.50351892     0.35800
C167        C  0.30706634  0.46808849  0.58006119    -0.21700
C168        C  0.27853028  0.44523365  0.57994811    -0.21700
C169        C  0.28988555  0.48932381  0.46377947    -0.21700
C170        C  0.26181770  0.46593566  0.46353202    -0.21700
C171        C  0.39363002  0.50493600  0.52907389    -0.22700
C172        C  0.39111477  0.50743064  0.50897972    -0.22700
C173        C  0.22457099  0.36767489  0.52848925    -0.22700
C174        C  0.22328731  0.37000582  0.50836428    -0.22700
C175        C  0.35173621  0.48705957  0.55544690    -0.18100
C176        C  0.24986370  0.40616666  0.55490344    -0.18100
C177        C  0.24417967  0.41515318  0.48446931    -0.18100
C178        C  0.34266019  0.49621684  0.48505671    -0.18100
H179        H  0.31710800  0.48227610  0.59276101     0.14800
H180        H  0.26277460  0.43839636  0.59261969     0.14800
H181        H  0.29678902  0.50778901  0.45223165     0.14800
H182        H  0.24271989  0.46287240  0.45179804     0.14800
H183        H  0.41678244  0.01126462  0.53777594     0.13100
H184        H  0.41168071  0.01636016  0.49908911     0.13100
H185        H  0.21345507  0.34635497  0.53719715     0.13100
H186        H  0.21091317  0.35104828  0.49847782     0.13100
H187        H  0.30600322  0.44005341  0.53516032     0.26400
H188        H  0.30311201  0.44357218  0.50318007     0.26400
N189        N  0.05740487  0.19959369  0.05066011    -0.36400
N190        N  0.00841328  0.17209455  0.02114073    -0.57000
N191        N  0.05425495  0.20349937  0.99144402    -0.36400
N192        N  0.10015853  0.23473231  0.02062746    -0.57000
C193        C  0.03064468  0.18762235  0.06211718     0.27200
C194        C  0.07794810  0.22134982  0.06179563     0.27200
C195        C  0.02562112  0.19386492  0.98083139     0.27200
C196        C  0.07293347  0.22681097  0.98047866     0.27200
C197        C  0.99595261  0.15417451  0.03680637     0.35800
C198        C  0.99481227  0.15581246  0.00510518     0.35800
C199        C  0.12102045  0.24122893  0.03625610     0.35800
C200        C  0.11960732  0.24244159  0.00461103     0.35800
C201        C  0.03457398  0.20163810  0.08085841    -0.21700
C202        C  0.06407965  0.22314994  0.08059372    -0.21700
C203        C  0.02592759  0.21129293  0.96295263    -0.21700
C204        C  0.05583038  0.23206041  0.96270241    -0.21700
C205        C  0.47320567  0.12718283  0.03069962    -0.22700
C206        C  0.47273103  0.12805590  0.01054406    -0.22700
C207        C  0.15382972  0.25370543  0.03016877    -0.22700
C208        C  0.15292605  0.25442407  0.01002233    -0.22700
C209        C  0.00435137  0.16240748  0.05651462    -0.18100
C210        C  0.11005948  0.23794317  0.05591107    -0.18100
C211        C  0.10655123  0.24085306  0.98531964    -0.18100
C212        C  0.00187026  0.16626370  0.98569127    -0.18100
H213        H  0.01822123  0.19672992  0.09356483     0.14800
H214        H  0.07450183  0.23791026  0.09299950     0.14800
H215        H  0.00712398  0.20837058  0.95106127     0.14800
H216        H  0.06440307  0.24833853  0.95053733     0.14800
H217        H  0.45867216  0.10863971  0.03978227     0.13100
H218        H  0.45778140  0.11044024  0.00101142     0.13100
H219        H  0.17597654  0.26165775  0.03928647     0.13100
H220        H  0.17408786  0.26318458  0.00048426     0.13100
H221        H  0.06267552  0.19147252  0.03644490     0.26400
H222        H  0.06227570  0.19207070  0.00451723     0.26400
N223        N  0.06723539  0.18033163  0.48510313    -0.36400
N224        N  0.02229082  0.21264579  0.51536417    -0.57000
N225        N  0.06677183  0.17949422  0.54494886    -0.36400
N226        N  0.10891528  0.14339151  0.51491623    -0.57000
C227        C  0.04055932  0.19334976  0.47393148     0.27200
C228        C  0.08612797  0.15734141  0.47384163     0.27200
C229        C  0.04120979  0.19360223  0.55651807     0.27200
C230        C  0.08621612  0.15713293  0.55612345     0.27200
C231        C  0.00799053  0.22865247  0.49953402     0.35800
C232        C  0.00846564  0.22901475  0.53131739     0.35800
C233        C  0.12827957  0.13426692  0.49907578     0.35800
C234        C  0.12820649  0.13407813  0.53073219     0.35800
C235        C  0.04319284  0.17904437  0.45517589    -0.21700
C236        C  0.07151277  0.15609755  0.45519858    -0.21700
C237        C  0.04490916  0.18026243  0.57537436    -0.21700
C238        C  0.07289877  0.15708878  0.57506025    -0.21700
C239        C  0.48422487  0.25480641  0.50547133    -0.22700
C240        C  0.48459504  0.25507627  0.52561333    -0.22700
C241        C  0.15987404  0.11856295  0.50484421    -0.22700
C242        C  0.15979415  0.11841215  0.52497042    -0.22700
C243        C  0.01476939  0.21889257  0.47983178    -0.18100
C244        C  0.11711581  0.13849877  0.47949893    -0.18100
C245        C  0.11719229  0.13859717  0.55028427    -0.18100
C246        C  0.01598354  0.21976465  0.55095143    -0.18100
H247        H  0.02660614  0.18447273  0.44261666     0.14800
H248        H  0.08046824  0.14051115  0.44275546     0.14800
H249        H  0.02963877  0.18675906  0.58829218     0.14800
H250        H  0.08279705  0.14253168  0.58758100     0.14800
H251        H  0.46806047  0.27174955  0.49628235     0.13100
H252        H  0.46881165  0.27222209  0.53497109     0.13100
H253        H  0.18076232  0.10827622  0.49553746     0.13100
H254        H  0.18055389  0.10799595  0.53428506     0.13100
H255        H  0.07330849  0.18810700  0.49924227     0.26400
H256        H  0.07211898  0.18646345  0.53066362     0.26400
N257        N  0.32138751  0.43867135  0.98508619    -0.36400
N258        N  0.36017196  0.39865299  0.01462961    -0.57000
N259        N  0.31785367  0.43365004  0.04459531    -0.36400
N260        N  0.27585691  0.47010736  0.01517409    -0.57000
C261        C  0.33983744  0.41544548  0.97374132     0.27200
C262        C  0.29496002  0.45230434  0.97395223     0.27200
C263        C  0.33305676  0.40699560  0.05491554     0.27200
C264        C  0.29028149  0.44584966  0.05531999     0.27200
C265        C  0.38098963  0.39149346  0.99906633     0.35800
C266        C  0.37819030  0.38784223  0.03060886     0.35800
C267        C  0.26435779  0.48879603  0.99955915     0.35800
C268        C  0.26380802  0.48741764  0.03125122     0.35800
C269        C  0.32507269  0.41450909  0.95512278    -0.21700
C270        C  0.29699783  0.43788728  0.95521423    -0.21700
C271        C  0.31489363  0.40224105  0.07238808    -0.21700
C272        C  0.28790459  0.42680408  0.07264502    -0.21700
C273        C  0.41237427  0.37575551  0.00516925    -0.22700
C274        C  0.41051795  0.37331789  0.02523869    -0.22700
C275        C  0.24374958  0.01762791  0.00570795    -0.22700
C276        C  0.24357925  0.01683257  0.02584717    -0.22700
C277        C  0.37059394  0.39624773  0.97939487    -0.18100
C278        C  0.27055062  0.47911445  0.97983479    -0.18100
C279        C  0.26888466  0.47550400  0.05060953    -0.18100
C280        C  0.36456332  0.38888371  0.04977102    -0.18100
H281        H  0.33375418  0.39881343  0.94265894     0.14800
H282        H  0.28021120  0.44369685  0.94277886     0.14800
H283        H  0.32082254  0.38345915  0.08394003     0.14800
H284        H  0.26893528  0.43054488  0.08437120     0.14800
H285        H  0.43399894  0.36640642  0.99608480     0.13100
H286        H  0.43039303  0.36180044  0.03474680     0.13100
H287        H  0.23040435  0.03714354  0.99667801     0.13100
H288        H  0.23004013  0.03548934  0.03541446     0.13100
H289        H  0.32777248  0.44638359  0.99925507     0.26400
H290        H  0.32738605  0.44483102  0.03175189     0.26400
C291        C  0.45184513  0.30876123  0.85028410     0.80400
N292        N  0.47243755  0.33233578  0.84028680    -0.77900
C293        C  0.47025942  0.33436655  0.82043117     0.82900
N294        N  0.44683277  0.31342471  0.81059091    -0.77800
C295        C  0.42684337  0.28933334  0.82036784     0.83000
N296        N  0.42933405  0.28718530  0.84012765    -0.79500
C297        C  0.45496776  0.08707950  0.84883693     0.80400
N298        N  0.47463216  0.06156008  0.83960828    -0.77900
C299        C  0.46916400  0.05450074  0.82029226     0.82900
N300        N  0.44398482  0.07272196  0.81032341    -0.77800
C301        C  0.42491423  0.09856441  0.81934781     0.83000
N302        N  0.43044120  0.10573035  0.83854611    -0.79500
C303        C  0.19160043  0.07446291  0.85130448     0.80400
N304        N  0.21215286  0.09659276  0.84039768    -0.77900
C305        C  0.20968525  0.09647760  0.82058027     0.82900
N306        N  0.18679678  0.07379032  0.81158289    -0.77800
C307        C  0.16506597  0.05264881  0.82233041     0.83000
N308        N  0.16766988  0.05280062  0.84220470    -0.79500
C309        C  0.17271604  0.29837840  0.84879035     0.80400
N310        N  0.19906478  0.28138386  0.83905972    -0.77900
C311        C  0.20664197  0.28989370  0.82025402     0.82900
N312        N  0.18810351  0.31619226  0.81116736    -0.77800
C313        C  0.16132994  0.33314261  0.82080226     0.83000
N314        N  0.15365782  0.32409400  0.83958988    -0.79500
C315        C  0.17801597  0.08074327  0.68659518     0.80400
N316        N  0.15835197  0.05716350  0.69706961    -0.77900
C317        C  0.16412043  0.05338206  0.71660118     0.82900
N318        N  0.18938985  0.07336577  0.72561234    -0.77800
C319        C  0.20814477  0.09779645  0.71529400     0.83000
N320        N  0.20253758  0.10130541  0.69581431    -0.79500
C321        C  0.44289478  0.06904396  0.68529706     0.80400
N322        N  0.42176355  0.09252149  0.69508543    -0.77900
C323        C  0.42321287  0.09511476  0.71490967     0.82900
N324        N  0.44545550  0.07354346  0.72511041    -0.77800
C325        C  0.46753799  0.05088979  0.71542865     0.83000
N326        N  0.46597338  0.04852502  0.69558836    -0.79500
C327        C  0.39970639  0.26869898  0.81001559     0.42700
N328        N  0.35600051  0.25725663  0.79100838     0.01600
C329        C  0.25081551  0.10627449  0.79045464    -0.06300
H330        H  0.38665334  0.08297094  0.78121728     0.07000
C331        C  0.38120735  0.15075754  0.71809663    -0.06700
Co332      Co  0.31634137  0.19231728  0.80363688     0.74200
N333        N  0.35441409  0.12912612  0.78772305    -0.25900
Co334      Co  0.31618756  0.13031483  0.76596588     0.74100
C335        C  0.39805107  0.11822540  0.72530091     0.42800
N336        N  0.35554978  0.23765592  0.73300137     0.01200
N337        N  0.35536015  0.13239157  0.74447181     0.01300
N338        N  0.25297423  0.14598560  0.81556649    -0.46700
H339        H  0.38725848  0.22059230  0.82971451     0.07000
N340        N  0.35446756  0.15248194  0.80225523     0.01600
N341        N  0.27786753  0.13275335  0.74426057     0.01300
C342        C  0.23548467  0.11907837  0.72495301     0.42900
N343        N  0.35550902  0.26103606  0.74755489    -0.25300
C344        C  0.25206273  0.23795844  0.81692668    -0.06200
N345        N  0.38222505  0.28019475  0.79398139    -0.46400
N346        N  0.25259850  0.10885972  0.74128166    -0.46600
C347        C  0.23507926  0.27058294  0.81020519     0.42700
N348        N  0.27748619  0.15284264  0.80220436     0.01500
N349        N  0.27839092  0.26087619  0.74762000    -0.25300
N350        N  0.35521876  0.23163561  0.80422216    -0.25800
N351        N  0.27849306  0.23773999  0.73293930     0.01200
H352        H  0.24570170  0.30654433  0.75438270     0.07100
H353        H  0.24700219  0.16696726  0.70482438     0.07100
N354        N  0.27722126  0.12961600  0.78759305    -0.25900
N355        N  0.35531638  0.15767838  0.73104880    -0.25500
N356        N  0.27818002  0.25817414  0.79105482     0.01600
C357        C  0.39722852  0.11724487  0.80865621     0.42900
C358        C  0.38159979  0.28468988  0.74469149    -0.06700
N359        N  0.27840317  0.15801542  0.73083734    -0.25500
H360        H  0.38692378  0.16606905  0.70507395     0.07100
N361        N  0.37953485  0.14609328  0.81534363    -0.46700
H362        H  0.38729938  0.30766399  0.75383825     0.07100
C363        C  0.23524830  0.27272166  0.72677028     0.42800
C364        C  0.38167698  0.23683696  0.81701658    -0.06200
Co365      Co  0.31703437  0.26014688  0.76934742     0.73800
N366        N  0.38032636  0.24444172  0.71978197    -0.46400
C367        C  0.23477902  0.11732981  0.80892421     0.43000
N368        N  0.25263959  0.28186973  0.79417063    -0.46400
Co369      Co  0.31696885  0.19785162  0.73147178     0.73900
C370        C  0.25256839  0.15146544  0.71780227    -0.06700
C371        C  0.38075132  0.10578280  0.79043854    -0.06300
N372        N  0.27830951  0.23231708  0.80413161    -0.25800
N373        N  0.38041498  0.10819780  0.74153345    -0.46600
H374        H  0.24504573  0.08322109  0.78138286     0.07100
C375        C  0.25170108  0.28387276  0.74507550    -0.06700
Cl376      Cl  0.31662237  0.19517503  0.76759275    -0.49700
C377        C  0.39787307  0.27357182  0.72633746     0.42800
H378        H  0.24608844  0.22159678  0.82952225     0.07000
N379        N  0.25340440  0.24430962  0.71983706    -0.46400
C380        C  0.45684844  0.30257152  0.68622623     0.80400
N381        N  0.43166031  0.28464176  0.69644542    -0.77900
C382        C  0.42562860  0.29241658  0.71557127     0.82900
N383        N  0.44479551  0.31838159  0.72457605    -0.77800
C384        C  0.47065503  0.33587987  0.71470219     0.83000
N385        N  0.47676582  0.32786772  0.69552118    -0.79500
C386        C  0.18665048  0.31518370  0.68607778     0.80400
N387        N  0.16443230  0.33725518  0.69615090    -0.77900
C388        C  0.16462716  0.33733952  0.71606823     0.82900
N389        N  0.18730425  0.31579760  0.72583379    -0.77800
C390        C  0.20865348  0.29297376  0.71595766     0.83000
N391        N  0.20846227  0.29281535  0.69609621    -0.79500
C392        C  0.14148936  0.36199059  0.81129282     0.42700
N393        N  0.12880921  0.40555497  0.79231680     0.01600
C394        C  0.47786580  0.00927411  0.79186470    -0.06300
H395        H  0.45661882  0.37196055  0.78204191     0.07000
C396        C  0.02369076  0.38103881  0.71824349    -0.06700
Co397      Co  0.06384295  0.44455433  0.80523176     0.74200
N398        N  0.00180977  0.40511601  0.78880702    -0.25900
Co399      Co  0.50236923  0.44428808  0.76722131     0.74100
C400        C  0.49109753  0.36390072  0.72474693     0.42800
N401        N  0.10895730  0.40650552  0.73404139     0.01200
N402        N  0.00465945  0.40557694  0.74505754     0.01300
N403        N  0.01724734  0.00858949  0.81697505    -0.46700
H404        H  0.09328982  0.37326314  0.83106763     0.07000
N405        N  0.02452250  0.40549552  0.80354977     0.01600
N406        N  0.50443461  0.48389306  0.74580921     0.01300
C407        C  0.49043946  0.02640727  0.72634092     0.42900
N408        N  0.13179553  0.40616883  0.74871569    -0.25300
C409        C  0.11033812  0.00917962  0.81935310    -0.06200
N410        N  0.15227611  0.37976071  0.79520554    -0.46400
N411        N  0.48021944  0.00890495  0.74262447    -0.46600
C412        C  0.14259199  0.02639517  0.81227885     0.42700
N413        N  0.02421864  0.48323783  0.80384199     0.01500
N414        N  0.13195319  0.48395786  0.74908177    -0.25300
N415        N  0.10341469  0.40580450  0.80561424    -0.25800
N416        N  0.10882408  0.48403228  0.73455255     0.01200
H417        H  0.17829298  0.01596582  0.75521632     0.07100
H418        H  0.03823634  0.01494588  0.70631812     0.07100
N419        N  0.50129151  0.48287980  0.78920694    -0.25900
N420        N  0.03004217  0.40638868  0.73177142    -0.25500
N421        N  0.12860757  0.48388377  0.79258067     0.01600
C422        C  0.98982936  0.36182886  0.80973415     0.42900
C423        C  0.15501947  0.37972223  0.74575451    -0.06700
N424        N  0.02974518  0.48378050  0.73247285    -0.25500
H425        H  0.03933722  0.37604414  0.70524363     0.07100
N426        N  0.01793828  0.38029095  0.81664389    -0.46700
H427        H  0.17768523  0.37379653  0.75488905     0.07100
C428        C  0.14451316  0.02660929  0.72777934     0.42800
C429        C  0.10926099  0.37926784  0.81834368    -0.06200
Co430      Co  0.13096787  0.44487453  0.77071269     0.73800
N431        N  0.11590499  0.38188338  0.72055632    -0.46400
C432        C  0.48850589  0.02607730  0.81017356     0.43000
N433        N  0.15247075  0.00922513  0.79576155    -0.46400
Co434      Co  0.06948033  0.44520397  0.73283490     0.73900
C435        C  0.02294773  0.00953840  0.71937366    -0.06700
C436        C  0.47901175  0.37814946  0.79136051    -0.06300
N437        N  0.10353601  0.48340455  0.80606116    -0.25800
N438        N  0.48071292  0.38052138  0.74138697    -0.46600
H439        H  0.45539457  0.01495153  0.78253887     0.07100
C440        C  0.15540586  0.01033288  0.74616376    -0.06700
Cl441      Cl  0.06665924  0.44471826  0.76901590    -0.49700
C442        C  0.14433643  0.36376949  0.72717774     0.42800
H443        H  0.09514453  0.01451828  0.83247701     0.07000
N444        N  0.11568396  0.00886476  0.72125735    -0.46400
C445        C  0.17997349  0.05617928  0.90556113    -0.01800
C446        C  0.21531950  0.04992037  0.91149833     0.06800
C447        C  0.24264000  0.05411845  0.89777440    -0.07800
C448        C  0.23548856  0.06378028  0.87844923     0.04200
C449        C  0.20007093  0.06884209  0.87226493    -0.15000
C450        C  0.17259912  0.06514895  0.88599965    -0.08300
C451        C  0.22479026  0.03572927  0.93120408     0.05200
C452        C  0.20955350  0.50302957  0.93751740    -0.09500
C453        C  0.22247174  0.48546617  0.95414567     0.00200
C454        C  0.25204713  0.49943333  0.96421298     0.00000
C455        C  0.26612181  0.03265347  0.95857029    -0.13000
C456        C  0.25243856  0.05102805  0.94245859     0.00500
C457        C  0.20579869  0.45265420  0.96027511     0.39800
C458        C  0.26753095  0.08533586  0.93764559     0.36400
C459        C  0.15097889  0.05362747  0.91926459     0.36200
C460        C  0.26501573  0.06567093  0.86501349     0.36900
N461        N  0.19224484  0.42648929  0.96525320    -0.43900
N462        N  0.27967376  0.11284600  0.93386901    -0.44300
N463        N  0.28870198  0.06716086  0.85428227    -0.41700
N464        N  0.12787002  0.05149394  0.93033512    -0.43100
H465        H  0.14535794  0.06900370  0.88139852     0.13000
H466        H  0.26977992  0.04845234  0.90199164     0.09500
H467        H  0.18852949  0.49072504  0.92900787     0.10600
H468        H  0.28845129  0.04367671  0.96659171     0.16400
C469        C  0.42386097  0.38431627  0.93302330    -0.01800
C470        C  0.42254417  0.34689259  0.93027633     0.06800
C471        C  0.40754081  0.32546625  0.94492373    -0.07800
C472        C  0.39157438  0.34094124  0.96140274     0.04200
C473        C  0.39161557  0.37843041  0.96371391    -0.15000
C474        C  0.40885862  0.39967085  0.94979334    -0.08300
C475        C  0.43220290  0.33051015  0.91114588     0.05200
C476        C  0.46667779  0.33464040  0.90379526    -0.09500
C477        C  0.47466870  0.32573047  0.88430647     0.00200
C478        C  0.44787559  0.31184303  0.87190794     0.00000
C479        C  0.41428905  0.30474561  0.87995895    -0.13000
C480        C  0.40617036  0.31427100  0.89923864     0.00500
C481        C  0.51025599  0.33202650  0.87743747     0.39800
C482        C  0.37006544  0.30980643  0.90586101     0.36400
C483        C  0.43774865  0.40775404  0.91812316     0.36200
C484        C  0.37314053  0.31810033  0.97500780     0.36900
N485        N  0.03887385  0.33744947  0.87215555    -0.43900
N486        N  0.34115837  0.30626536  0.91116735    -0.44300
N487        N  0.35825885  0.29993842  0.98593856    -0.41700
N488        N  0.44875757  0.42648131  0.90613121    -0.43100
H489        H  0.40874716  0.42849826  0.95151211     0.13000
H490        H  0.40644395  0.29673039  0.94287854     0.09500
H491        H  0.48694167  0.34649346  0.91304807     0.10600
H492        H  0.39328799  0.29405460  0.87079523     0.16400
C493        C  0.14302462  0.07749833  0.59096490    -0.01800
C494        C  0.15925145  0.10205642  0.60385451     0.06800
C495        C  0.16877163  0.13603498  0.59712614    -0.07800
C496        C  0.15899140  0.14701660  0.57836393     0.04200
C497        C  0.13917599  0.12380809  0.56626800    -0.15000
C498        C  0.13296838  0.08856512  0.57222617    -0.08300
C499        C  0.16354172  0.09418107  0.62487416     0.05200
C500        C  0.19768823  0.08953847  0.63240811    -0.09500
C501        C  0.20289448  0.08422895  0.65245264     0.00200
C502        C  0.17345883  0.08368428  0.66525331     0.00000
C503        C  0.13919721  0.08745911  0.65761168    -0.13000
C504        C  0.13404372  0.09313389  0.63757884     0.00500
C505        C  0.23859493  0.07851050  0.65940246     0.39800
C506        C  0.09847766  0.09943274  0.63053913     0.36400
C507        C  0.13488128  0.04157427  0.59710867     0.36200
C508        C  0.16676840  0.18313977  0.57237202     0.36900
N509        N  0.26722536  0.07382697  0.66490572    -0.43900
N510        N  0.06997105  0.10459316  0.62496446    -0.44300
N511        N  0.17294927  0.21203693  0.56747754    -0.41700
N512        N  0.12850143  0.01281445  0.60215619    -0.43100
H513        H  0.11780529  0.07071692  0.56287465     0.13000
H514        H  0.18185914  0.15469485  0.60695864     0.09500
H515        H  0.22028616  0.09026702  0.62259852     0.10600
H516        H  0.11655794  0.08727872  0.66740177     0.16400
C517        C  0.50121312  0.28721282  0.59116352    -0.01800
C518        C  0.47977703  0.26739887  0.60417158     0.06800
C519        C  0.46385291  0.23569377  0.59734349    -0.07800
C520        C  0.97190824  0.22194562  0.57875255     0.04200
C521        C  0.99760089  0.23906323  0.56712507    -0.15000
C522        C  0.51074988  0.27246173  0.57301739    -0.08300
C523        C  0.47441764  0.27830488  0.62504055     0.05200
C524        C  0.43981235  0.27988084  0.63249552    -0.09500
C525        C  0.43348488  0.28751246  0.65229587     0.00200
C526        C  0.46219069  0.29478674  0.66507864     0.00000
C527        C  0.49679839  0.29364810  0.65760223    -0.13000
C528        C  0.50317833  0.28452769  0.63796724     0.00500
C529        C  0.39715750  0.28810255  0.65893550     0.39800
C530        C  0.03946633  0.27917083  0.63192643     0.36400
C531        C  0.51362408  0.32263559  0.59606109     0.36200
C532        C  0.95586865  0.18875583  0.57249900     0.36900
N533        N  0.36801643  0.28830105  0.66420972    -0.43900
N534        N  0.06856592  0.27463730  0.62719675    -0.44300
N535        N  0.94308253  0.16219192  0.56738624    -0.41700
N536        N  0.52339503  0.35112577  0.59991270    -0.43100
H537        H  0.52963349  0.28629006  0.56378145     0.13000
H538        H  0.44631050  0.22079115  0.60686919     0.09500
H539        H  0.41756507  0.27473360  0.62280899     0.10600
H540        H  0.51905394  0.29832966  0.66735399     0.16400
C541        C  0.19163538  0.28550066  0.90252284    -0.01800
C542        C  0.15768401  0.27802660  0.90995227     0.06800
C543        C  0.12857843  0.27650775  0.89714742    -0.07800
C544        C  0.13294082  0.28256472  0.87706783     0.04200
C545        C  0.16682936  0.29067469  0.86967028    -0.15000
C546        C  0.19599679  0.29163331  0.88246374    -0.08300
C547        C  0.15175693  0.27083163  0.93096464     0.05200
C548        C  0.13453939  0.29675514  0.94239363    -0.09500
C549        C  0.12308417  0.28875167  0.96136049     0.00200
C550        C  0.12838218  0.25417681  0.96887306     0.00000
C551        C  0.14806599  0.22919801  0.95803626    -0.13000
C552        C  0.15991823  0.23732667  0.93916037     0.00500
C553        C  0.10311319  0.31512820  0.97218713     0.39800
C554        C  0.17817737  0.21014483  0.92797238     0.36400
C555        C  0.22211042  0.28751588  0.91528129     0.36200
C556        C  0.10286740  0.27823310  0.86417556     0.36900
N557        N  0.08702840  0.33615326  0.98091575    -0.43900
N558        N  0.19292333  0.18845579  0.91900049    -0.44300
N559        N  0.07901054  0.27435421  0.85371159    -0.41700
N560        N  0.24643876  0.28910830  0.92558138    -0.43100
H561        H  0.22214838  0.29775669  0.87680627     0.13000
H562        H  0.10253348  0.27003155  0.90284228     0.09500
H563        H  0.12854810  0.32263319  0.93612465     0.10600
H564        H  0.15192173  0.20250891  0.96378327     0.16400
C565        C  0.00600160  0.11432123  0.93897570    -0.01800
C566        C  0.47200987  0.11998141  0.93102474     0.06800
C567        C  0.44582317  0.13663755  0.94252560    -0.07800
C568        C  0.45392653  0.14974076  0.96129124     0.04200
C569        C  0.48829330  0.14499658  0.96890398    -0.15000
C570        C  0.01352048  0.12595139  0.95794871    -0.08300
C571        C  0.46478018  0.11136324  0.91019445     0.05200
C572        C  0.46821527  0.07588559  0.90372795    -0.09500
C573        C  0.46566984  0.06723281  0.88380659     0.00200
C574        C  0.45913706  0.09447014  0.86999844     0.00000
C575        C  0.45481059  0.12981351  0.87659694    -0.13000
C576        C  0.45787579  0.13849379  0.89645097     0.00500
C577        C  0.46887968  0.03016880  0.87810536     0.39800
C578        C  0.45549766  0.17562770  0.90219093     0.36400
C579        C  0.03465551  0.10030835  0.92719719     0.36200
C580        C  0.42769944  0.17031978  0.97178182     0.36900
N581        N  0.47163131  0.50056592  0.87350568    -0.43900
N582        N  0.45363878  0.20540775  0.90671788    -0.44300
N583        N  0.40672540  0.18692736  0.98018377    -0.41700
N584        N  0.05750722  0.08953858  0.91754115    -0.43100
H585        H  0.04026264  0.12313974  0.96360021     0.13000
H586        H  0.41968436  0.14112543  0.93640189     0.09500
H587        H  0.47351203  0.05499124  0.91429519     0.10600
H588        H  0.44978413  0.15094677  0.86613178     0.16400
C589        C  0.40776937  0.48854028  0.60147700    -0.01800
C590        C  0.40864971  0.02556366  0.60593973     0.06800
C591        C  0.39520166  0.04997597  0.59227620    -0.07800
C592        C  0.37864804  0.03811182  0.57505411     0.04200
C593        C  0.37536620  0.50107360  0.57129398    -0.15000
C594        C  0.39133827  0.47673390  0.58419058    -0.08300
C595        C  0.41831125  0.03875175  0.62582508     0.05200
C596        C  0.45363173  0.03759359  0.63227145    -0.09500
C597        C  0.46273221  0.04876566  0.65132146     0.00200
C598        C  0.43611052  0.06127148  0.66425141     0.00000
C599        C  0.40100326  0.06327214  0.65746772    -0.13000
C600        C  0.39194830  0.05197110  0.63857667     0.00500
C601        C  0.49955534  0.04785039  0.65707791     0.39800
C602        C  0.35504643  0.05259634  0.63291134     0.36400
C603        C  0.42142280  0.46226135  0.61493041     0.36200
C604        C  0.36332541  0.06433666  0.56214027     0.36900
N605        N  0.02905295  0.04729485  0.66172864    -0.43900
N606        N  0.32550946  0.05298245  0.62834554    -0.44300
N607        N  0.35130165  0.08552131  0.55178687    -0.41700
N608        N  0.43235988  0.44106235  0.62563908    -0.43100
H609        H  0.38917384  0.44830989  0.58125702     0.13000
H610        H  0.39591209  0.07832784  0.59562698     0.09500
H611        H  0.47403156  0.02779501  0.62243792     0.10600
H612        H  0.38013273  0.07226880  0.66723318     0.16400
C613        C  0.16631973  0.33293959  0.63255913    -0.01800
C614        C  0.20066128  0.33758251  0.62472326     0.06800
C615        C  0.23009439  0.33280418  0.63700817    -0.07800
C616        C  0.22603092  0.32389671  0.65670826     0.04200
C617        C  0.19170194  0.32025728  0.66475241    -0.15000
C618        C  0.16209813  0.32471853  0.65249446    -0.08300
C619        C  0.20719227  0.35067722  0.60443890     0.05200
C620        C  0.19205644  0.38323835  0.59854421    -0.09500
C621        C  0.20349945  0.40031503  0.58145568     0.00200
C622        C  0.23151040  0.38549899  0.57043883     0.00000
C623        C  0.24481030  0.35183234  0.57546132    -0.13000
C624        C  0.23242614  0.33405757  0.59208954     0.00500
C625        C  0.18748364  0.43386427  0.57601688     0.39800
C626        C  0.24669394  0.29919961  0.59646291     0.36400
C627        C  0.13516678  0.33643206  0.62044064     0.36200
C628        C  0.25769110  0.32116575  0.66854264     0.36900
N629        N  0.17452925  0.46066374  0.57159868    -0.47500
N630        N  0.25812158  0.27125652  0.59995070    -0.44300
N631        N  0.28307735  0.31897500  0.67798804    -0.41700
N632        N  0.11031742  0.33936039  0.61063448    -0.43100
H633        H  0.13566097  0.32200041  0.65853387     0.13000
H634        H  0.25655758  0.33733573  0.63133268     0.09500
H635        H  0.17266726  0.39635445  0.60782461     0.10600
H636        H  0.26577253  0.33999226  0.56671559     0.16400
C637        C  0.20233647  0.99610472  0.13632575    -0.01800
C638        C  0.21095105  0.02451702  0.12367900     0.06800
C639        C  0.21049455  0.05965998  0.13092602    -0.07800
C640        C  0.20330397  0.06664241  0.15071103     0.04200
C641        C  0.19663478  0.03800652  0.16362303    -0.15000
C642        C  0.19518229  0.00305762  0.15607890    -0.08300
C643        C  0.22401307  0.01760305  0.10351030     0.05200
C644        C  0.20157648  0.00150411  0.08960265    -0.09500
C645        C  0.21531478  0.49011634  0.07147911     0.00200
C646        C  0.25161022  0.49445641  0.06723546     0.00000
C647        C  0.27299504  0.01247295  0.08059787    -0.13000
C648        C  0.25975722  0.02408762  0.09864489     0.00500
C649        C  0.19190327  0.47210925  0.05793189     0.39800
C650        C  0.28388328  0.04030583  0.11251727     0.36400
C651        C  0.20241457  0.45953166  0.12954874     0.36200
C652        C  0.20186442  0.10339659  0.15719044     0.36900
N653        N  0.17323185  0.45785479  0.04693956    -0.43900
N654        N  0.30286175  0.05332675  0.12380111    -0.44300
N655        N  0.20046391  0.13286962  0.16233732    -0.41700
N656        N  0.20223395  0.43015454  0.12418085    -0.43100
H657        H  0.18959413  0.98089476  0.16578655     0.13000
H658        H  0.21651897  0.08160425  0.12115119     0.09500
H659        H  0.17401076  0.99675131  0.09323967     0.10600
H660        H  0.30095042  0.01574885  0.07736070     0.16400
C661        C  0.15025777  0.06591895  0.44559945    -0.01800
C662        C  0.16491227  0.08620602  0.43022837     0.06800
C663        C  0.16812538  0.12339247  0.43245101    -0.07800
C664        C  0.15509219  0.14064653  0.44914290     0.04200
C665        C  0.13786506  0.12063502  0.46375973    -0.15000
C666        C  0.13674414  0.08325750  0.46219728    -0.08300
C667        C  0.17250487  0.07027914  0.41073199     0.05200
C668        C  0.14444814  0.05457922  0.40034019    -0.09500
C669        C  0.14801010  0.04532597  0.38057153     0.00200
C670        C  0.18045076  0.05199280  0.37072843     0.00000
C671        C  0.20923716  0.06553007  0.38161422    -0.13000
C672        C  0.20547621  0.07472243  0.40141403     0.00500
C673        C  0.11688065  0.03178152  0.37067663     0.39800
C674        C  0.23539220  0.08974499  0.41177016     0.36400
C675        C  0.14784198  0.02747834  0.44434809     0.36200
C676        C  0.15788222  0.17906735  0.45052470     0.36900
N677        N  0.09180696  0.02098573  0.36286173    -0.43900
N678        N  0.25916460  0.10191967  0.42019231    -0.44300
N679        N  0.15996204  0.20985467  0.45166559    -0.41700
N680        N  0.14589198  0.99667765  0.44327700    -0.43100
H681        H  0.12382236  0.06780518  0.47354256     0.13000
H682        H  0.17918237  0.13920522  0.42066227     0.09500
H683        H  0.11888843  0.05149196  0.40741175     0.10600
H684        H  0.23445036  0.07026713  0.37446397     0.16400
C685        C  0.36692566  0.03146490  0.39577596    -0.01800
C686        C  0.39518223  0.02448111  0.40870846     0.06800
C687        C  0.42964829  0.02119015  0.40139947    -0.07800
C688        C  0.43644556  0.02544608  0.38139850     0.04200
C689        C  0.40818558  0.03304534  0.36840080    -0.15000
C690        C  0.37365176  0.03605848  0.37583428    -0.08300
C691        C  0.38875176  0.01871564  0.42976758     0.05200
C692        C  0.38803548  0.48350514  0.43654074    -0.09500
C693        C  0.37620417  0.47610029  0.45544547     0.00200
C694        C  0.36504663  0.50429238  0.46782354     0.00000
C695        C  0.36817086  0.03993850  0.46149815    -0.13000
C696        C  0.38026548  0.04720364  0.44252190     0.00500
C697        C  0.37315192  0.43920688  0.46136871     0.39800
C698        C  0.38271240  0.08382789  0.43613603     0.36400
C699        C  0.33109484  0.53360476  0.40268720     0.36200
C700        C  0.47278276  0.02328188  0.37487325     0.36900
N701        N  0.37052124  0.40969015  0.46612525    -0.43900
N702        N  0.38495581  0.11313333  0.43095435    -0.44300
N703        N  0.50195528  0.02156566  0.36973318    -0.41700
N704        N  0.30204838  0.53447278  0.40807332    -0.43100
H705        H  0.35173121  0.04140207  0.36598106     0.13000
H706        H  0.45127174  0.01548137  0.41138829     0.09500
H707        H  0.39464167  0.46170710  0.42666407     0.10600
H708        H  0.35930566  0.06160551  0.47088745     0.16400
C709        C  0.20882088  0.29430275  0.13244434    -0.01800
C710        C  0.17532332  0.29947495  0.12376177     0.06800
C711        C  0.14766835  0.31358093  0.13502438    -0.07800
C712        C  0.15210919  0.32074948  0.15493100     0.04200
C713        C  0.18531744  0.31419852  0.16403087    -0.15000
C714        C  0.21361417  0.30174878  0.15244390    -0.08300
C715        C  0.16622121  0.28528415  0.10408769     0.05200
C716        C  0.16738315  0.24814827  0.10121251    -0.09500
C717        C  0.15097644  0.23239066  0.08497079     0.00200
C718        C  0.13278151  0.25394482  0.07141035     0.00000
C719        C  0.13369975  0.29123324  0.07351282    -0.13000
C720        C  0.15034800  0.30703999  0.08970546     0.00500
C721        C  0.15174132  0.19398785  0.08293951     0.39800
C722        C  0.14978012  0.34547262  0.09167209     0.36400
C723        C  0.23825241  0.28063232  0.12118326     0.36200
C724        C  0.12089055  0.33145922  0.16573570     0.36900
N725        N  0.15235392  0.16320880  0.08130491    -0.43900
N726        N  0.14937858  0.37626529  0.09327355    -0.44300
N727        N  0.09574603  0.33981354  0.17431340    -0.41700
N728        N  0.26173141  0.26963730  0.11207483    -0.43100
H729        H  0.23921123  0.29680313  0.15913395     0.13000
H730        H  0.12164129  0.31679426  0.12848102     0.09500
H731        H  0.17925641  0.23125021  0.11229063     0.10600
H732        H  0.12008636  0.30785437  0.06293118     0.16400
C733        C  0.41728349  0.08313366  0.13081137    -0.01800
C734        C  0.45275072  0.08721574  0.12454071     0.06800
C735        C  0.48022728  0.07833769  0.13750550    -0.07800
C736        C  0.47309617  0.06616068  0.15643339     0.04200
C737        C  0.43762156  0.06282179  0.16289387    -0.15000
C738        C  0.41003329  0.07123150  0.14987426    -0.08300
C739        C  0.46217399  0.10382124  0.10538461     0.05200
C740        C  0.44850624  0.13776015  0.10083160    -0.09500
C741        C  0.46009909  0.15633702  0.08426283     0.00200
C742        C  0.48687469  0.14160109  0.07233575     0.00000
C743        C  0.49952995  0.10719185  0.07633993    -0.13000
C744        C  0.48718327  0.08808831  0.09254524     0.00500
C745        C  0.94525695  0.19105770  0.08021586     0.39800
C746        C  0.50096394  0.05260488  0.09576521     0.36400
C747        C  0.38795946  0.09149093  0.11803791     0.36200
C748        C  0.50285893  0.06018045  0.16935193     0.36900
N749        N  0.93336820  0.21890804  0.07699728    -0.43900
N750        N  0.51219098  0.02422658  0.09828791    -0.44300
N751        N  0.52668496  0.05553344  0.17972160    -0.41700
N752        N  0.36470283  0.09862800  0.10771401    -0.43100
H753        H  0.38275048  0.06899858  0.15470876     0.13000
H754        H  0.50754386  0.08243372  0.13311395     0.09500
H755        H  0.42965852  0.15042131  0.11062967     0.10600
H756        H  0.51977400  0.09559225  0.06699539     0.16400
C757        C  0.25047425  0.36227033  0.43789811    -0.01800
C758        C  0.21703596  0.36840396  0.42927732     0.06800
C759        C  0.19055836  0.38576799  0.44026775    -0.07800
C760        C  0.19780068  0.39883726  0.45916099     0.04200
C761        C  0.23188253  0.39443900  0.46719336    -0.15000
C762        C  0.25755850  0.37524164  0.45669784    -0.08300
C763        C  0.21037003  0.35848087  0.40849092     0.05200
C764        C  0.21412921  0.32265261  0.40270986    -0.09500
C765        C  0.21198393  0.31261085  0.38296172     0.00200
C766        C  0.20497377  0.33867466  0.36854907     0.00000
C767        C  0.20039182  0.37445815  0.37444927    -0.13000
C768        C  0.20330240  0.38456985  0.39415477     0.00500
C769        C  0.21628841  0.27528781  0.37811341     0.39800
C770        C  0.20012158  0.42200538  0.39916457     0.36400
C771        C  0.27870018  0.34480681  0.42724900     0.36200
C772        C  0.17066173  0.41810452  0.46968326     0.36900
N773        N  0.21993670  0.24533806  0.37434273    -0.43900
N774        N  0.19753320  0.45199420  0.40313500    -0.44300
N775        N  0.14892821  0.43344839  0.47821344    -0.41700
N776        N  0.30105075  0.33065761  0.41859189    -0.43100
H777        H  0.28394533  0.37224106  0.46280529     0.13000
H778        H  0.16464694  0.39010625  0.43382665     0.09500
H779        H  0.21939041  0.30249763  0.41370553     0.10600
H780        H  0.19496260  0.39477595  0.36356910     0.16400
C781        C  0.37836384  0.32855499  0.13488850    -0.01800
C782        C  0.40831523  0.33076342  0.12256464     0.06800
C783        C  0.44226389  0.32689089  0.13063330    -0.07800
C784        C  0.44669733  0.32125511  0.15076543     0.04200
C785        C  0.41667383  0.31936472  0.16311927    -0.15000
C786        C  0.38274045  0.32229279  0.15491434    -0.08300
C787        C  0.40455448  0.34141145  0.10179420     0.05200
C788        C  0.41584605  0.37574064  0.09653750    -0.09500
C789        C  0.40537757  0.39068525  0.07873696     0.00200
C790        C  0.38397749  0.37077726  0.06576015     0.00000
C791        C  0.37558977  0.33520590  0.07012836    -0.13000
C792        C  0.38556897  0.32042152  0.08811038     0.00500
C793        C  0.41428773  0.42747246  0.07478119     0.39800
C794        C  0.37389745  0.28472758  0.09278811     0.36400
C795        C  0.34302989  0.33498129  0.12754047     0.36200
C796        C  0.48222586  0.31686710  0.15827092     0.36900
N797        N  0.42121768  0.45700699  0.07162439    -0.43900
N798        N  0.36419064  0.25626871  0.09660457    -0.44300
N799        N  0.01070002  0.31331573  0.16426654    -0.41700
N800        N  0.31482799  0.34030185  0.12156106    -0.43100
H801        H  0.35960024  0.32117194  0.16431647     0.13000
H802        H  0.46531911  0.32891511  0.12121753     0.09500
H803        H  0.43049184  0.39190502  0.10700584     0.10600
H804        H  0.35897261  0.31999456  0.06015222     0.16400
C805        C  0.41965110  0.28409712  0.40379556    -0.01800
C806        C  0.45484345  0.27866192  0.41010952     0.06800
C807        C  0.48254548  0.28188821  0.39657038    -0.07800
C808        C  0.47590539  0.29052681  0.37704671     0.04200
C809        C  0.44067868  0.29577207  0.37057585    -0.15000
C810        C  0.41278034  0.29223988  0.38406636    -0.08300
C811        C  0.46401050  0.26730232  0.43032502     0.05200
C812        C  0.45223777  0.23388946  0.43697611    -0.09500
C813        C  0.96667134  0.21867838  0.45391753     0.00200
C814        C  0.99390251  0.23667094  0.46414373     0.00000
C815        C  0.50375846  0.27113985  0.45834253    -0.13000
C816        C  0.48872656  0.28671468  0.44170453     0.00500
C817        C  0.95500505  0.18360427  0.45983066     0.39800
C818        C  0.49961658  0.32230584  0.43627440     0.36400
C819        C  0.39047234  0.28231254  0.41740703     0.36200
C820        C  0.50577771  0.29197150  0.36382844     0.36900
N821        N  0.94591707  0.15541204  0.46457469    -0.43900
N822        N  0.50815847  0.35088588  0.43192873    -0.44300
N823        N  0.52983544  0.29308736  0.35333772    -0.41700
N824        N  0.36725166  0.28099374  0.42844519    -0.43100
H825        H  0.38569251  0.29622338  0.37923349     0.13000
H826        H  0.50958920  0.27690729  0.40123520     0.09500
H827        H  0.43325034  0.21880161  0.42833417     0.10600
H828        H  0.52413713  0.28534545  0.46645064     0.16400
C829        C  0.43286057  0.80335943  0.34980758     0.80400
N830        N  0.40919102  0.78295896  0.33966677    -0.77900
C831        C  0.40673841  0.78597837  0.31985029     0.82900
N832        N  0.42827456  0.80899441  0.31023111    -0.77800
C833        C  0.45084789  0.83036495  0.32032816     0.83000
N834        N  0.45326594  0.82733772  0.34005919    -0.79500
C835        C  0.41968834  0.81535158  0.18457156     0.80400
N836        N  0.44432914  0.83418849  0.19481857    -0.77900
C837        C  0.44795592  0.82934866  0.21440093     0.82900
N838        N  0.42709646  0.80536846  0.22374658    -0.77800
C839        C  0.40178653  0.78718134  0.21370547     0.83000
N840        N  0.39799702  0.79230231  0.19414089    -0.79500
C841        C  0.19984878  0.82959348  0.34754035     0.80400
N842        N  0.17505277  0.84771539  0.33724753    -0.77900
C843        C  0.16744457  0.83868850  0.31849754     0.82900
N844        N  0.18500899  0.81120413  0.30976212    -0.77800
C845        C  0.21074473  0.79342818  0.31974004     0.83000
N846        N  0.21798750  0.80260290  0.33864989    -0.79500
C847        C  0.42928124  0.55450594  0.18353723     0.80400
N848        N  0.40559443  0.57507031  0.19349513    -0.77900
C849        C  0.40253248  0.57223825  0.21326699     0.82900
N850        N  0.42360745  0.54898765  0.22312998    -0.77800
C851        C  0.44613472  0.52715611  0.21317605     0.83000
N852        N  0.44904947  0.53019747  0.19344735    -0.79500
C853        C  0.47565304  0.85317994  0.30974539     0.42700
N854        N  0.01730099  0.86723957  0.29000670     0.01600
C855        C  0.11797489  0.52130669  0.28886705    -0.06300
H856        H  0.98205270  0.54074164  0.27992381     0.07000
C857        C  0.98855396  0.97182415  0.21676039    -0.06700
Co858      Co  0.05509586  0.93362261  0.30247434     0.74200
N859        N  0.01510890  0.99532179  0.28649703    -0.25900
Co860      Co  0.05310276  0.99486448  0.26464163     0.74100
C861        C  0.97082643  0.50407220  0.22386506     0.42800
N862        N  0.01668451  0.88586167  0.23191730     0.01200
N863        N  0.01382192  0.99119532  0.24320386     0.01300
N864        N  0.11738165  0.98171739  0.31396041    -0.46700
H865        H  0.98697780  0.90164033  0.32970742     0.07000
N866        N  0.01572168  0.97237489  0.30111751     0.01600
N867        N  0.09141097  0.99305605  0.24286569     0.01300
C868        C  0.13382203  0.00665789  0.22364184     0.42900
N869        N  0.01720804  0.86285921  0.24652411    -0.25300
C870        C  0.12149706  0.89029070  0.31525699    -0.06200
N871        N  0.99266547  0.84284230  0.29331332    -0.46400
N872        N  0.11632366  0.51729045  0.23978518    -0.46600
C873        C  0.13921334  0.85800422  0.30835132     0.42700
N874        N  0.09265218  0.97422087  0.30079264     0.01500
N875        N  0.09446632  0.86521436  0.24664328    -0.25300
N876        N  0.01758464  0.89284912  0.30337155    -0.25800
N877        N  0.09382915  0.88813121  0.23200858     0.01200
H878        H  0.12943442  0.82170561  0.25401044     0.07100
H879        H  0.12345716  0.95773578  0.20384707     0.07100
N880        N  0.09212398  0.99718739  0.28617990    -0.25900
N881        N  0.01454299  0.96569396  0.22977859    -0.25500
N882        N  0.09492462  0.86870507  0.28975795     0.01600
C883        C  0.97250057  0.50715548  0.30752721     0.42900
C884        C  0.99149811  0.83868031  0.24371303    -0.06700
N885        N  0.09149794  0.96732443  0.22958894    -0.25500
H886        H  0.98336712  0.95626611  0.20367163     0.07100
N887        N  0.99079312  0.97879591  0.31432788    -0.46700
H888        H  0.98622024  0.81581751  0.25289583     0.07100
C889        C  0.13938665  0.85571182  0.22662120     0.42800
C890        C  0.99236341  0.88601259  0.31667428    -0.06200
Co891      Co  0.05588240  0.86520216  0.26824783     0.73800
N892        N  0.99208538  0.87827484  0.21868877    -0.46400
C893        C  0.13469252  0.01070499  0.30725322     0.43000
N894        N  0.12122277  0.84583160  0.29261134    -0.46400
Co895      Co  0.05408119  0.92662399  0.23032870     0.73900
C896        C  0.11738080  0.97374753  0.21664633    -0.06700
C897        C  0.98840240  0.51824518  0.28917392    -0.06300
N898        N  0.09450473  0.89485217  0.30279032    -0.25800
N899        N  0.98822010  0.51474306  0.24012298    -0.46600
H900        H  0.12319797  0.54421353  0.27970809     0.07100
C901        C  0.12247341  0.84368363  0.24452612    -0.06700
Cl902      Cl  0.05445666  0.93007709  0.26642270    -0.49700
C903        C  0.47506154  0.84903783  0.22529638     0.42800
H904        H  0.12749146  0.90706758  0.32777784     0.07000
N905        N  0.12000853  0.88293295  0.21939391    -0.46400
C906        C  0.18958683  0.81663351  0.18562650     0.80400
N907        N  0.16832095  0.83875006  0.19616312    -0.77900
C908        C  0.16678470  0.83641880  0.21589500     0.82900
N909        N  0.18687799  0.81198910  0.22528552    -0.77800
C910        C  0.20942912  0.79076320  0.21510993     0.83000
N911        N  0.21053705  0.79273841  0.19521656    -0.79500
C912        C  0.41389580  0.53886684  0.34722900     0.80400
N913        N  0.43871833  0.51970156  0.33731888    -0.77900
C914        C  0.94469019  0.52610907  0.31808335     0.82900
N915        N  0.42599197  0.55175401  0.30875978    -0.77800
C916        C  0.40067537  0.57043782  0.31838572     0.83000
N917        N  0.39458314  0.56400285  0.33762627    -0.79500
C918        C  0.18382512  0.54971806  0.34901900     0.80400
N919        N  0.20655803  0.57194908  0.33956967    -0.77900
C920        C  0.20617040  0.57419523  0.31973764     0.82900
N921        N  0.18265511  0.55446380  0.30923793    -0.77800
C922        C  0.16079445  0.53124578  0.31845894     0.83000
N923        N  0.16140166  0.52900999  0.33828669    -0.79500
C924        C  0.19114720  0.54336120  0.18489506     0.80400
N925        N  0.16708641  0.52284759  0.19440529    -0.77900
C926        C  0.16093682  0.52783309  0.21377509     0.82900
N927        N  0.17914421  0.55327878  0.22380517    -0.77800
C928        C  0.20414161  0.57311048  0.21458182     0.83000
N929        N  0.21003007  0.56819752  0.19511377    -0.79500
C930        C  0.23025397  0.76404130  0.31024336     0.42700
N931        N  0.24318973  0.72108549  0.29060766     0.01600
C932        C  0.39267324  0.61498958  0.28977893    -0.06300
H933        H  0.41719937  0.75026586  0.28062382     0.07000
C934        C  0.34782267  0.74349088  0.21686614    -0.06700
Co935      Co  0.30779736  0.68126720  0.30326640     0.74200
N936        N  0.37041106  0.71928831  0.28693497    -0.25900
Co937      Co  0.36883878  0.67986651  0.26525496     0.74100
C938        C  0.38024527  0.76055447  0.22379366     0.42800
N939        N  0.26268552  0.71903851  0.23213154     0.01200
N940        N  0.36668458  0.71836161  0.24339361     0.01300
N941        N  0.35340897  0.61684014  0.31491030    -0.46700
H942        H  0.27842043  0.75220495  0.32993061     0.07000
N943        N  0.34784890  0.71953500  0.30172549     0.01600
N944        N  0.36608647  0.64004483  0.24370174     0.01300
C945        C  0.37970779  0.59722763  0.22409975     0.42900
N946        N  0.24010267  0.72008999  0.24690214    -0.25300
C947        C  0.26085077  0.61724021  0.31694660    -0.06200
N948        N  0.21963795  0.74671961  0.29386276    -0.46400
N949        N  0.39001562  0.61479402  0.24045086    -0.46600
C950        C  0.22840339  0.60041805  0.30979934     0.42700
N951        N  0.34680106  0.64195565  0.30177307     0.01500
N952        N  0.23832309  0.64234541  0.24703884    -0.25300
N953        N  0.26860812  0.72054404  0.30391447    -0.25800
N954        N  0.26133496  0.64148956  0.23247180     0.01200
H955        H  0.19095976  0.61199924  0.25313052     0.07100
H956        H  0.33201463  0.60907879  0.20407080     0.07100
N957        N  0.36963270  0.64161412  0.28712012    -0.25900
N958        N  0.34140265  0.71780625  0.23002669    -0.25500
N959        N  0.24242025  0.64287737  0.29048381     0.01600
C960        C  0.38463867  0.76130931  0.30846348     0.42900
C961        C  0.21764902  0.74721732  0.24418356    -0.06700
N962        N  0.34075823  0.64031925  0.23034805    -0.25500
H963        H  0.33220066  0.74892827  0.20392533     0.07100
N964        N  0.35588870  0.74382523  0.31522827    -0.46700
H965        H  0.19544792  0.75395953  0.25350997     0.07100
C966        C  0.22412323  0.60016013  0.22558353     0.42800
C967        C  0.26260764  0.74667648  0.31704152    -0.06200
Co968      Co  0.24036805  0.68164777  0.26879460     0.73800
N969        N  0.25634561  0.74394766  0.21882772    -0.46400
C970        C  0.38180248  0.59873950  0.30809888     0.43000
N971        N  0.21836305  0.61780253  0.29348838    -0.46400
Co972      Co  0.30147808  0.67956969  0.23083161     0.73900
C973        C  0.34732177  0.61440670  0.21716842    -0.06700
C974        C  0.39437553  0.74517059  0.28977582    -0.06300
N975        N  0.26765523  0.64305047  0.30389615    -0.25800
N976        N  0.39058025  0.74352971  0.24018377    -0.46600
H977        H  0.41505417  0.60882176  0.28046498     0.07100
C978        C  0.21395674  0.61683060  0.24406880    -0.06700
Cl979      Cl  0.30461730  0.68058406  0.26704290    -0.49700
C980        C  0.22852234  0.76285844  0.22566021     0.42800
H981        H  0.27624105  0.61153904  0.32993790     0.07000
N982        N  0.25353432  0.61688632  0.21911519    -0.46400
N983        N  0.30094608  0.94653434  0.54959777    -0.36400
N984        N  0.33857902  0.98869467  0.52043636    -0.57000
N985        N  0.29270521  0.95650221  0.49106318    -0.36400
N986        N  0.25224058  0.91805203  0.51983640    -0.57000
C987        C  0.32067427  0.96841123  0.56114867     0.27200
C988        C  0.27510999  0.93221127  0.56089893     0.27200
C989        C  0.30853080  0.98281990  0.48091141     0.27200
C990        C  0.26435766  0.94580456  0.48052261     0.27200
C991        C  0.36103472  0.99291143  0.53565844     0.35800
C992        C  0.35687750  0.99727294  0.50412661     0.35800
C993        C  0.24328032  0.89719613  0.53508771     0.35800
C994        C  0.24063078  0.90119936  0.50350563     0.35800
C995        C  0.30724252  0.96787150  0.58005806    -0.21700
C996        C  0.27876480  0.94493963  0.57993781    -0.21700
C997        C  0.28972761  0.98938348  0.46381465    -0.21700
C998        C  0.26176182  0.96587398  0.46355570    -0.21700
C999        C  0.39358639  0.00512824  0.52905094    -0.22700
C1000       C  0.39098929  0.00770712  0.50896449    -0.22700
C1001       C  0.22492584  0.86734330  0.52846073    -0.22700
C1002       C  0.22359392  0.86972299  0.50833829    -0.22700
C1003       C  0.35183600  0.98701777  0.55544274    -0.18100
C1004       C  0.25019364  0.90582578  0.55488306    -0.18100
C1005       C  0.24434533  0.91497620  0.48446660    -0.18100
C1006       C  0.34249243  0.99643638  0.48508115    -0.18100
H1007       H  0.31723607  0.98209264  0.59275824     0.14800
H1008       H  0.26300726  0.93806377  0.59260283     0.14800
H1009       H  0.29654316  0.00790249  0.45227707     0.14800
H1010       H  0.24267051  0.96275990  0.45182267     0.14800
H1011       H  0.41681687  0.51102819  0.53781556     0.13100
H1012       H  0.41187281  0.51596317  0.49911537     0.13100
H1013       H  0.21385452  0.84599136  0.53716271     0.13100
H1014       H  0.21121407  0.85077908  0.49844611     0.13100
H1015       H  0.30626787  0.93985500  0.53515105     0.26400
H1016       H  0.30318104  0.94359841  0.50317844     0.26400
N1017       N  0.05734910  0.69972772  0.05061889    -0.36400
N1018       N  0.00835179  0.67224647  0.02109213    -0.57000
N1019       N  0.05420199  0.70365794  0.99141013    -0.36400
N1020       N  0.10010704  0.73487238  0.02059538    -0.57000
C1021       C  0.03056554  0.68777008  0.06206343     0.27200
C1022       C  0.07786443  0.72150486  0.06175832     0.27200
C1023       C  0.02557102  0.69402521  0.98079590     0.27200
C1024       C  0.07287366  0.72697706  0.98044793     0.27200
C1025       C  0.99590348  0.65430811  0.03675255     0.35800
C1026       C  0.99477512  0.65595025  0.00505587     0.35800
C1027       C  0.12095624  0.74138494  0.03622760     0.35800
C1028       C  0.11955494  0.74259142  0.00457965     0.35800
C1029       C  0.03443708  0.70181754  0.08079914    -0.21700
C1030       C  0.06395306  0.72332485  0.08054790    -0.21700
C1031       C  0.02586887  0.71146075  0.96292033    -0.21700
C1032       C  0.05576523  0.73223324  0.96267283    -0.21700
C1033       C  0.47318765  0.62729199  0.03064434    -0.22700
C1034       C  0.47271609  0.62817116  0.01048905    -0.22700
C1035       C  0.15376043  0.75388079  0.03014309    -0.22700
C1036       C  0.15286534  0.75459248  0.00999479    -0.22700
C1037       C  0.00429955  0.66253564  0.05645772    -0.18100
C1038       C  0.10997674  0.73811165  0.05588158    -0.18100
C1039       C  0.10649507  0.74100923  0.98528748    -0.18100
C1040       C  0.00184558  0.66640406  0.98564694    -0.18100
H1041       H  0.01801974  0.69693664  0.09348507     0.14800
H1042       H  0.07434426  0.73810843  0.09295337     0.14800
H1043       H  0.00706835  0.70853519  0.95102778     0.14800
H1044       H  0.06433107  0.74851177  0.95050696     0.14800
H1045       H  0.45867877  0.60872853  0.03972689     0.13100
H1046       H  0.45778893  0.61054339  0.00095224     0.13100
H1047       H  0.17589488  0.76185657  0.03926392     0.13100
H1048       H  0.17402261  0.76337038  0.00045845     0.13100
H1049       H  0.06264923  0.69158288  0.03641040     0.26400
H1050       H  0.06222905  0.69221752  0.00447928     0.26400
N1051       N  0.06688412  0.67979974  0.48515831    -0.36400
N1052       N  0.02178022  0.71204288  0.51540386    -0.57000
N1053       N  0.06633292  0.67911711  0.54499568    -0.36400
N1054       N  0.10863480  0.64306934  0.51498045    -0.57000
C1055       C  0.04019041  0.69274114  0.47397536     0.27200
C1056       C  0.08587844  0.65688033  0.47390285     0.27200
C1057       C  0.04069783  0.69312944  0.55655145     0.27200
C1058       C  0.08579553  0.65678163  0.55617209     0.27200
C1059       C  0.00750461  0.72801269  0.49955684     0.35800
C1060       C  0.00793813  0.72845721  0.53134057     0.35800
C1061       C  0.12808460  0.63402607  0.49915719     0.35800
C1062       C  0.12795549  0.63391867  0.53081222     0.35800
C1063       C  0.04290212  0.67844845  0.45521926    -0.21700
C1064       C  0.07130427  0.65559880  0.45525175    -0.21700
C1065       C  0.04436195  0.67975074  0.57540005    -0.21700
C1066       C  0.07241519  0.65665469  0.57509596    -0.21700
C1067       C  0.48372434  0.75417704  0.50546778    -0.22700
C1068       C  0.48407205  0.75450119  0.52561037    -0.22700
C1069       C  0.15976528  0.61853733  0.50495173    -0.22700
C1070       C  0.15965299  0.61844240  0.52507879    -0.22700
C1071       C  0.01434384  0.71823975  0.47986119    -0.18100
C1072       C  0.11693033  0.63815764  0.47957417    -0.18100
C1073       C  0.11686007  0.63838091  0.55035254    -0.18100
C1074       C  0.01546125  0.71927151  0.55098219    -0.18100
H1075       H  0.02632291  0.68383551  0.44265154     0.14800
H1076       H  0.08034720  0.64006039  0.44280992     0.14800
H1077       H  0.02903054  0.68617626  0.58830611     0.14800
H1078       H  0.08232032  0.64210536  0.58761709     0.14800
H1079       H  0.46757589  0.77110359  0.49626113     0.13100
H1080       H  0.46828598  0.77167458  0.53495164     0.13100
H1081       H  0.18073110  0.60836286  0.49566146     0.13100
H1082       H  0.18046156  0.60818377  0.53441314     0.13100
H1083       H  0.07289976  0.68760230  0.49930011     0.26400
H1084       H  0.07173694  0.68615188  0.53072527     0.26400
N1085       N  0.32111104  0.93870913  0.98505874    -0.36400
N1086       N  0.35992879  0.89871708  0.01462059    -0.57000
N1087       N  0.31756552  0.93367743  0.04458249    -0.36400
N1088       N  0.27550414  0.97007650  0.01513543    -0.57000
C1089       C  0.33958915  0.91552068  0.97370559     0.27200
C1090       C  0.29476146  0.95244501  0.97390696     0.27200
C1091       C  0.33289961  0.90713831  0.05493631     0.27200
C1092       C  0.28998723  0.94585236  0.05531288     0.27200
C1093       C  0.38069111  0.89146896  0.99904531     0.35800
C1094       C  0.37796602  0.88791018  0.03059600     0.35800
C1095       C  0.26403686  0.98880702  0.99952697     0.35800
C1096       C  0.26336961  0.98731485  0.03121626     0.35800
C1097       C  0.32491439  0.91471374  0.95506167    -0.21700
C1098       C  0.29687092  0.93813432  0.95514868    -0.21700
C1099       C  0.31482500  0.90244862  0.07244239    -0.21700
C1100       C  0.28774870  0.92691301  0.07267953    -0.21700
C1101       C  0.41205359  0.87567226  0.00513804    -0.22700
C1102       C  0.41024550  0.87329641  0.02521005    -0.22700
C1103       C  0.24413751  0.51767091  0.00573420    -0.22700
C1104       C  0.24405301  0.51695430  0.02587573    -0.22700
C1105       C  0.37029821  0.89624975  0.97937251    -0.18100
C1106       C  0.27034925  0.97924427  0.97979744    -0.18100
C1107       C  0.26845966  0.97540458  0.05057532    -0.18100
C1108       C  0.36440771  0.88903234  0.04977445    -0.18100
H1109       H  0.33363657  0.89907869  0.94258375     0.14800
H1110       H  0.28014159  0.94404021  0.94270252     0.14800
H1111       H  0.32085629  0.88376577  0.08402630     0.14800
H1112       H  0.26881354  0.93066177  0.08442190     0.14800
H1113       H  0.43364122  0.86625866  0.99604658     0.13100
H1114       H  0.43012363  0.86176343  0.03471055     0.13100
H1115       H  0.23076845  0.53716341  0.99670045     0.13100
H1116       H  0.23056525  0.53565437  0.03543990     0.13100
H1117       H  0.32742659  0.94633294  0.99924910     0.26400
H1118       H  0.32700363  0.94479599  0.03170392     0.26400
C1119       C  0.45181968  0.80886048  0.85026031     0.80400
N1120       N  0.47243777  0.83240020  0.84025713    -0.77900
C1121       C  0.47030222  0.83437560  0.82039927     0.82900
N1122       N  0.44688827  0.81341533  0.81056026    -0.77800
C1123       C  0.42687586  0.78935254  0.82034482     0.83000
N1124       N  0.42932794  0.78725897  0.84010738    -0.79500
C1125       C  0.45523838  0.58720156  0.84877345     0.80400
N1126       N  0.47485502  0.56165683  0.83954191    -0.77900
C1127       C  0.46929991  0.55454094  0.82024306     0.82900
N1128       N  0.44407847  0.57273167  0.81029017    -0.77800
C1129       C  0.42504844  0.59860284  0.81931733     0.83000
N1130       N  0.43066321  0.60582641  0.83850264    -0.79500
C1131       C  0.19173440  0.57425619  0.85129657     0.80400
N1132       N  0.21228803  0.59640682  0.84040256    -0.77900
C1133       C  0.20981271  0.59633248  0.82058515     0.82900
N1134       N  0.18691295  0.57366893  0.81157601    -0.77800
C1135       C  0.16517397  0.55252071  0.82231515     0.83000
N1136       N  0.16778696  0.55263393  0.84218595    -0.79500
C1137       C  0.17259634  0.79832017  0.84871086     0.80400
N1138       N  0.19894324  0.78130988  0.83898760    -0.77900
C1139       C  0.20657078  0.78984171  0.82019158     0.82900
N1140       N  0.18808191  0.81618481  0.81110663    -0.77800
C1141       C  0.16130870  0.83315278  0.82073695     0.83000
N1142       N  0.15359350  0.82407797  0.83951417    -0.79500
C1143       C  0.17775893  0.58097676  0.68670009     0.80400
N1144       N  0.15818342  0.55731295  0.69716356    -0.77900
C1145       C  0.16406233  0.55342325  0.71667705     0.82900
N1146       N  0.18936030  0.57338066  0.72568241    -0.77800
C1147       C  0.20803373  0.59789045  0.71537362     0.83000
N1148       N  0.20231430  0.60150615  0.69591059    -0.79500
C1149       C  0.44293353  0.56897426  0.68531638     0.80400
N1150       N  0.42180747  0.59246802  0.69509630    -0.77900
C1151       C  0.42327636  0.59510613  0.71491790     0.82900
N1152       N  0.44553530  0.57356062  0.72512563    -0.77800
C1153       C  0.46761757  0.55089485  0.71545075     0.83000
N1154       N  0.46603093  0.54848623  0.69561264    -0.79500
C1155       C  0.39974366  0.76870180  0.80999774     0.42700
N1156       N  0.35601991  0.75724864  0.79100534     0.01600
C1157       C  0.25092857  0.60618795  0.79046370    -0.06300
H1158       H  0.38673621  0.58297359  0.78120674     0.07000
C1159       C  0.38123568  0.65073554  0.71809004    -0.06700
Co1160     Co  0.31638301  0.69229495  0.80363861     0.74200
N1161       N  0.35448217  0.62911541  0.78771901    -0.25900
Co1162     Co  0.31624367  0.63029083  0.76596683     0.74100
C1163       C  0.39809872  0.61821518  0.72530081     0.42800
N1164       N  0.35557369  0.73762936  0.73300696     0.01200
N1165       N  0.35539909  0.63237418  0.74446792     0.01300
N1166       N  0.25306104  0.64589092  0.81558056    -0.46700
H1167       H  0.38731941  0.72059715  0.82970324     0.07000
N1168       N  0.35453482  0.65247267  0.80225135     0.01600
N1169       N  0.27790175  0.63273286  0.74427206     0.01300
C1170       C  0.23542765  0.61912813  0.72501256     0.42900
N1171       N  0.35553256  0.76100466  0.74756263    -0.25300
C1172       C  0.25203325  0.73791484  0.81690050    -0.06200
N1173       N  0.38224494  0.78019042  0.79396853    -0.46400
N1174       N  0.25259320  0.60887177  0.74131734    -0.46600
C1175       C  0.23503523  0.77052755  0.81016218     0.42700
N1176       N  0.27755055  0.65278876  0.80221150     0.01500
N1177       N  0.27841360  0.76086326  0.74762432    -0.25300
N1178       N  0.35524969  0.73163145  0.80422087    -0.25800
N1179       N  0.27850689  0.73773085  0.73294267     0.01200
H1180       H  0.24574429  0.80654300  0.75439394     0.07100
H1181       H  0.24690860  0.66703259  0.70488889     0.07100
N1182       N  0.27729904  0.62956587  0.78759846    -0.25900
N1183       N  0.35534110  0.65765481  0.73104183    -0.25500
N1184       N  0.27819652  0.75814300  0.79104796     0.01600
C1185       C  0.39731810  0.61725342  0.80864276     0.42900
C1186       C  0.38164432  0.78463840  0.74471445    -0.06700
N1187       N  0.27841393  0.65800618  0.73085463    -0.25500
H1188       H  0.38695114  0.66604653  0.70506706     0.07100
N1189       N  0.37961858  0.64609726  0.81533292    -0.46700
H1190       H  0.38735197  0.80760163  0.75386779     0.07100
C1191       C  0.23526531  0.77273202  0.72678211     0.42800
C1192       C  0.38172035  0.73684048  0.81700721    -0.06200
Co1193     Co  0.31705530  0.76012368  0.76934820     0.73800
N1194       N  0.38037239  0.74440165  0.71979888    -0.46400
C1195       C  0.23489693  0.61721307  0.80893787     0.43000
N1196       N  0.25262976  0.78181909  0.79414148    -0.46400
Co1197     Co  0.31698647  0.69783288  0.73147358     0.73900
C1198       C  0.25252024  0.65150075  0.71784997    -0.06700
C1199       C  0.38082983  0.60578206  0.79042975    -0.06300
N1200       N  0.27831935  0.73228702  0.80412604    -0.25800
N1201       N  0.38046497  0.60819033  0.74153395    -0.46600
H1202       H  0.24518563  0.58312716  0.78139233     0.07100
C1203       C  0.25173070  0.78387067  0.74508483    -0.06700
Cl1204     Cl  0.31665606  0.69515186  0.76759442    -0.49700
C1205       C  0.39793244  0.77351425  0.72636782     0.42800
H1206       H  0.24603364  0.72154771  0.82949024     0.07000
N1207       N  0.25341456  0.74431563  0.71984375    -0.46400
C1208       C  0.45680006  0.80260696  0.68623954     0.80400
N1209       N  0.43165007  0.78464653  0.69646777    -0.77900
C1210       C  0.42566747  0.79237919  0.71560158     0.82900
N1211       N  0.44484421  0.81833666  0.72460723    -0.77800
C1212       C  0.47066972  0.83586730  0.71472262     0.83000
N1213       N  0.47673409  0.82789369  0.69553168    -0.79500
C1214       C  0.18670440  0.81522365  0.68608736     0.80400
N1215       N  0.16449214  0.83731179  0.69615329    -0.77900
C1216       C  0.16467610  0.83740555  0.71607111     0.82900
N1217       N  0.18734038  0.81585236  0.72584271    -0.77800
C1218       C  0.20868140  0.79300849  0.71597055     0.83000
N1219       N  0.20849847  0.79284683  0.69611002    -0.79500
C1220       C  0.14149872  0.86204578  0.81124407     0.42700
N1221       N  0.12882378  0.90565543  0.79229733     0.01600
C1222       C  0.47793185  0.50925754  0.79184448    -0.06300
H1223       H  0.45665818  0.87196268  0.78201504     0.07000
C1224       C  0.02369762  0.88104044  0.71825356    -0.06700
Co1225     Co  0.06382681  0.94460906  0.80522336     0.74200
N1226       N  0.00181720  0.90515101  0.78879520    -0.25900
Co1227     Co  0.50235109  0.94432831  0.76721680     0.74100
C1228       C  0.49111421  0.86389245  0.72476418     0.42800
N1229       N  0.10896645  0.90657325  0.73402940     0.01200
N1230       N  0.00465487  0.90560574  0.74505749     0.01300
N1231       N  0.01732599  0.50858840  0.81694946    -0.46700
H1232       H  0.09329220  0.87327693  0.83102104     0.07000
N1233       N  0.02453341  0.90552921  0.80353549     0.01600
N1234       N  0.50439531  0.98392284  0.74579918     0.01300
C1235       C  0.49051929  0.52642067  0.72636904     0.42900
N1236       N  0.13181108  0.90626886  0.74870109    -0.25300
C1237       C  0.11040446  0.50911197  0.81934681    -0.06200
N1238       N  0.15228850  0.87984979  0.79516867    -0.46400
N1239       N  0.48027648  0.50889533  0.74264076    -0.46600
C1240       C  0.14266916  0.52629944  0.81226391     0.42700
N1241       N  0.02417275  0.98327389  0.80385031     0.01500
N1242       N  0.13190158  0.98406174  0.74906185    -0.25300
N1243       N  0.10342635  0.90587923  0.80559321    -0.25800
N1244       N  0.10878429  0.98410471  0.73452619     0.01200
H1245       H  0.17833425  0.51587179  0.75525332     0.07100
H1246       H  0.03832423  0.51495998  0.70635149     0.07100
N1247       N  0.50125157  0.98292204  0.78921152    -0.25900
N1248       N  0.03003772  0.90641214  0.73177119    -0.25500
N1249       N  0.12855748  0.98399436  0.79257523     0.01600
C1250       C  0.98988073  0.86182340  0.80970099     0.42900
C1251       C  0.15505590  0.87983659  0.74574347    -0.06700
N1252       N  0.02969628  0.98380323  0.73245662    -0.25500
H1253       H  0.03934594  0.87603595  0.70525556     0.07100
N1254       N  0.01797219  0.88030216  0.81661943    -0.46700
H1255       H  0.17772625  0.87393297  0.75487876     0.07100
C1256       C  0.14453117  0.52656495  0.72783037     0.42800
C1257       C  0.10927196  0.87931554  0.81830530    -0.06200
Co1258     Co  0.13094917  0.94498454  0.77069834     0.73800
N1259       N  0.11593015  0.88194196  0.72055046    -0.46400
C1260       C  0.48860163  0.52608794  0.81013744     0.43000
N1261       N  0.15253911  0.50910013  0.79575615    -0.46400
Co1262     Co  0.06945799  0.94524938  0.73282117     0.73900
C1263       C  0.02302243  0.50954129  0.71940092    -0.06700
C1264       C  0.47904463  0.87816091  0.79133649    -0.06300
N1265       N  0.10348920  0.98348320  0.80605758    -0.25800
N1266       N  0.48072265  0.88053095  0.74139756    -0.46600
H1267       H  0.45546993  0.51494570  0.78251389     0.07100
C1268       C  0.15545268  0.51023990  0.74619629    -0.06700
Cl1269     Cl  0.06664067  0.94478740  0.76900502    -0.49700
C1270       C  0.14438041  0.86385396  0.72717247     0.42800
H1271       H  0.09521552  0.51447820  0.83246907     0.07000
N1272       N  0.11570008  0.50883197  0.72130387    -0.46400
C1273       C  0.17997282  0.55542365  0.90547671    -0.01800
C1274       C  0.21533559  0.54942342  0.91146567     0.06800
C1275       C  0.24269971  0.55394665  0.89779796    -0.07800
C1276       C  0.23558732  0.56373375  0.87848760     0.04200
C1277       C  0.20016654  0.56858665  0.87225735    -0.15000
C1278       C  0.17264829  0.56453434  0.88593203    -0.08300
C1279       C  0.22482123  0.53526492  0.93117753     0.05200
C1280       C  0.20932992  0.00360297  0.93756508    -0.09500
C1281       C  0.22222719  0.98592610  0.95416139     0.00200
C1282       C  0.25195060  0.99967614  0.96418243     0.00000
C1283       C  0.26601877  0.53250395  0.95861640    -0.13000
C1284       C  0.25229726  0.55076846  0.94247892     0.00500
C1285       C  0.20535209  0.95323476  0.96031247     0.39800
C1286       C  0.26719818  0.58516877  0.93768135     0.36400
C1287       C  0.15089321  0.55242002  0.91909636     0.36200
C1288       C  0.26517900  0.56596648  0.86511164     0.36900
N1289       N  0.19162269  0.92717385  0.96530725    -0.43900
N1290       N  0.27919611  0.61274608  0.93391091    -0.44300
N1291       N  0.28891654  0.56773027  0.85442810    -0.41700
N1292       N  0.12769670  0.54990238  0.93008551    -0.43100
H1293       H  0.14540162  0.56819380  0.88129153     0.13000
H1294       H  0.26985915  0.54845711  0.90204722     0.09500
H1295       H  0.18816353  0.99146422  0.92909200     0.10600
H1296       H  0.28823707  0.54368475  0.96666731     0.16400
C1297       C  0.42370909  0.88442843  0.93304510    -0.01800
C1298       C  0.42233168  0.84701971  0.93024418     0.06800
C1299       C  0.40725396  0.82555262  0.94485151    -0.07800
C1300       C  0.39126384  0.84098065  0.96133685     0.04200
C1301       C  0.39134136  0.87846049  0.96369088    -0.15000
C1302       C  0.40867215  0.89973270  0.94981873    -0.08300
C1303       C  0.43202209  0.83069996  0.91110189     0.05200
C1304       C  0.46651077  0.83484667  0.90377213    -0.09500
C1305       C  0.47454559  0.82594798  0.88428714     0.00200
C1306       C  0.44779283  0.81201288  0.87187706     0.00000
C1307       C  0.41418510  0.80492869  0.87990326    -0.13000
C1308       C  0.40601268  0.81447994  0.89917096     0.00500
C1309       C  0.51012935  0.83232263  0.87743283     0.39800
C1310       C  0.36987509  0.81007263  0.90575044     0.36400
C1311       C  0.43770372  0.90791328  0.91819836     0.36200
C1312       C  0.37279698  0.81810594  0.97491121     0.36900
N1313       N  0.03873909  0.83781698  0.87216259    -0.43900
N1314       N  0.34093739  0.80658494  0.91101634    -0.44300
N1315       N  0.35789747  0.79991445  0.98581982    -0.41700
N1316       N  0.44880229  0.92668403  0.90625224    -0.43100
H1317       H  0.40860576  0.92855270  0.95157712     0.13000
H1318       H  0.40612759  0.79682597  0.94277111     0.09500
H1319       H  0.48675220  0.84670320  0.91303864     0.10600
H1320       H  0.39320661  0.79422938  0.87072648     0.16400
C1321       C  0.14263457  0.57749418  0.59111541    -0.01800
C1322       C  0.15884975  0.60211603  0.60397117     0.06800
C1323       C  0.16838370  0.63605953  0.59720005    -0.07800
C1324       C  0.15863161  0.64695007  0.57841992     0.04200
C1325       C  0.13884910  0.62367450  0.56634823    -0.15000
C1326       C  0.13262774  0.58846207  0.57235338    -0.08300
C1327       C  0.16315526  0.59433492  0.62499408     0.05200
C1328       C  0.19730451  0.58959936  0.63250112    -0.09500
C1329       C  0.20254855  0.58436161  0.65254534     0.00200
C1330       C  0.17314571  0.58395924  0.66536898     0.00000
C1331       C  0.13887538  0.58785275  0.65775763    -0.13000
C1332       C  0.13368758  0.59347515  0.63772334     0.00500
C1333       C  0.23825243  0.57857453  0.65947141     0.39800
C1334       C  0.09813108  0.59990432  0.63070391     0.36400
C1335       C  0.13444477  0.54161311  0.59731471     0.36200
C1336       C  0.16639783  0.68305163  0.57238575     0.36900
N1337       N  0.26688880  0.57384458  0.66495270    -0.43900
N1338       N  0.06963320  0.60517644  0.62514717    -0.44300
N1339       N  0.17257515  0.71193304  0.56746255    -0.41700
N1340       N  0.12802277  0.51288656  0.60240220    -0.43100
H1341       H  0.11747344  0.57057194  0.56302134     0.13000
H1342       H  0.18146059  0.65476379  0.60701165     0.09500
H1343       H  0.21987626  0.59020240  0.62267003     0.10600
H1344       H  0.11626553  0.58778845  0.66756921     0.16400
C1345       C  0.50102585  0.78683598  0.59117287    -0.01800
C1346       C  0.47955022  0.76712980  0.60421013     0.06800
C1347       C  0.46349481  0.73546895  0.59741071    -0.07800
C1348       C  0.97144780  0.72165698  0.57881775     0.04200
C1349       C  0.99716001  0.73866482  0.56715431    -0.15000
C1350       C  0.51044662  0.77202361  0.57302203    -0.08300
C1351       C  0.47424455  0.77813077  0.62507144     0.05200
C1352       C  0.43964772  0.77986221  0.63253144    -0.09500
C1353       C  0.43335869  0.78760938  0.65232285     0.00200
C1354       C  0.46209796  0.79482704  0.66509079     0.00000
C1355       C  0.49669348  0.79356115  0.65760872    -0.13000
C1356       C  0.50303311  0.78433685  0.63798438     0.00500
C1357       C  0.39703886  0.78838049  0.65897199     0.39800
C1358       C  0.03930704  0.77886984  0.63194834     0.36400
C1359       C  0.51360260  0.82220998  0.59604690     0.36200
C1360       C  0.95526556  0.68852030  0.57259300     0.36900
N1361       N  0.36790533  0.78873247  0.66425709    -0.43900
N1362       N  0.06840347  0.77426791  0.62723216    -0.44300
N1363       N  0.94235925  0.66200124  0.56750274    -0.41700
N1364       N  0.52351304  0.85065618  0.59988708    -0.43100
H1365       H  0.52935573  0.78576667  0.56376372     0.13000
H1366       H  0.44591979  0.72065147  0.60695806     0.09500
H1367       H  0.41737613  0.77475128  0.62285648     0.10600
H1368       H  0.51896797  0.79820965  0.66735211     0.16400
C1369       C  0.19148033  0.78540629  0.90243927    -0.01800
C1370       C  0.15751157  0.77802540  0.90987261     0.06800
C1371       C  0.12839541  0.77659594  0.89707125    -0.07800
C1372       C  0.13276914  0.78264008  0.87699067     0.04200
C1373       C  0.16668498  0.79062234  0.86958827    -0.15000
C1374       C  0.19585661  0.79150133  0.88237904    -0.08300
C1375       C  0.15158023  0.77086681  0.93088884     0.05200
C1376       C  0.13435410  0.79680738  0.94230173    -0.09500
C1377       C  0.12294530  0.78885597  0.96128354     0.00200
C1378       C  0.12831742  0.75431984  0.96883449     0.00000
C1379       C  0.14800175  0.72932528  0.95800863    -0.13000
C1380       C  0.15978716  0.73739460  0.93911209     0.00500
C1381       C  0.10289909  0.81522035  0.97207641     0.39800
C1382       C  0.17800697  0.71017451  0.92793192     0.36400
C1383       C  0.22195666  0.78740009  0.91519758     0.36200
C1384       C  0.10266699  0.77845379  0.86410425     0.36900
N1385       N  0.08673956  0.83622921  0.98077414    -0.43900
N1386       N  0.19271476  0.68845032  0.91896632    -0.44300
N1387       N  0.07878547  0.77470052  0.85364394    -0.41700
N1388       N  0.24628514  0.78898574  0.92549775    -0.43100
H1389       H  0.22202397  0.79755184  0.87671992     0.13000
H1390       H  0.10233107  0.77021186  0.90277029     0.09500
H1391       H  0.12831559  0.82265488  0.93600881     0.10600
H1392       H  0.15189145  0.70265767  0.96377859     0.16400
C1393       C  0.00621780  0.61440042  0.93897096    -0.01800
C1394       C  0.47229007  0.62011177  0.93095038     0.06800
C1395       C  0.44604927  0.63681456  0.94239173    -0.07800
C1396       C  0.45404450  0.64992060  0.96116870     0.04200
C1397       C  0.48834284  0.64510494  0.96885825    -0.15000
C1398       C  0.01361722  0.62601282  0.95796143    -0.08300
C1399       C  0.46518203  0.61151489  0.91010853     0.05200
C1400       C  0.46853766  0.57602557  0.90365237    -0.09500
C1401       C  0.46597606  0.56736735  0.88373377     0.00200
C1402       C  0.45949715  0.59461273  0.86992219     0.00000
C1403       C  0.45530862  0.62997803  0.87650604    -0.13000
C1404       C  0.45840512  0.63866334  0.89635660     0.00500
C1405       C  0.46910447  0.53029185  0.87803889     0.39800
C1406       C  0.45618084  0.67581123  0.90208738     0.36400
C1407       C  0.03494039  0.60037892  0.92724645     0.36200
C1408       C  0.42780900  0.67062153  0.97158037     0.36900
N1409       N  0.47146552  0.00044987  0.87356887    -0.43900
N1410       N  0.45445330  0.70560216  0.90660847    -0.44300
N1411       N  0.40683676  0.68734322  0.97991522    -0.41700
N1412       N  0.05785749  0.58961433  0.91763609    -0.43100
H1413       H  0.04031684  0.62316956  0.96366934     0.13000
H1414       H  0.41996573  0.64135643  0.93620818     0.09500
H1415       H  0.47375826  0.55512312  0.91422635     0.10600
H1416       H  0.45035218  0.65111519  0.86603295     0.16400
C1417       C  0.40801469  0.98874598  0.60142373    -0.01800
C1418       C  0.40851691  0.52535020  0.60600547     0.06800
C1419       C  0.39519839  0.54982649  0.59233836    -0.07800
C1420       C  0.37867757  0.53804244  0.57509030     0.04200
C1421       C  0.37543613  0.00112600  0.57127906    -0.15000
C1422       C  0.39153967  0.97685795  0.58416612    -0.08300
C1423       C  0.41820488  0.53849523  0.62589326     0.05200
C1424       C  0.45354025  0.53735119  0.63231385    -0.09500
C1425       C  0.46268912  0.54858441  0.65134599     0.00200
C1426       C  0.43609858  0.56112603  0.66428501     0.00000
C1427       C  0.40097163  0.56308991  0.65752940    -0.13000
C1428       C  0.39187087  0.55173809  0.63865478     0.00500
C1429       C  0.49953082  0.54771960  0.65706833     0.39800
C1430       C  0.35495737  0.55236371  0.63301378     0.36400
C1431       C  0.42184782  0.96253771  0.61486284     0.36200
C1432       C  0.36349273  0.56433634  0.56216982     0.36900
N1433       N  0.02904431  0.54720872  0.66168767    -0.43900
N1434       N  0.32540719  0.55275512  0.62847448    -0.44300
N1435       N  0.35158231  0.58558225  0.55181439    -0.41700
N1436       N  0.43294267  0.94140804  0.62556332    -0.43100
H1437       H  0.38946602  0.94842327  0.58124451     0.13000
H1438       H  0.39599245  0.57817142  0.59570162     0.09500
H1439       H  0.47391746  0.52754068  0.62246951     0.10600
H1440       H  0.38012414  0.57211142  0.66730312     0.16400
C1441       C  0.16649006  0.83276440  0.63253414    -0.01800
C1442       C  0.20084442  0.83750809  0.62473239     0.06800
C1443       C  0.23024927  0.83292232  0.63706058    -0.07800
C1444       C  0.22614565  0.82407145  0.65676479     0.04200
C1445       C  0.19180195  0.82030249  0.66476874    -0.15000
C1446       C  0.16222588  0.82460352  0.65247445    -0.08300
C1447       C  0.20741173  0.85048313  0.60442938     0.05200
C1448       C  0.19220072  0.88295433  0.59844823    -0.09500
C1449       C  0.20368651  0.89996081  0.58134764     0.00200
C1450       C  0.23181015  0.88517150  0.57040990     0.00000
C1451       C  0.24517873  0.85157290  0.57550968    -0.13000
C1452       C  0.23275616  0.83386147  0.59214992     0.00500
C1453       C  0.18758452  0.93341238  0.57580843     0.39800
C1454       C  0.24710190  0.79907488  0.59661491     0.36400
C1455       C  0.13536687  0.83607390  0.62037651     0.36200
C1456       C  0.25776744  0.82150934  0.66864279     0.36900
N1457       N  0.17455845  0.96012717  0.57130235    -0.47500
N1458       N  0.25858585  0.77118903  0.60018180    -0.44300
N1459       N  0.28312085  0.81945069  0.67812440    -0.41700
N1460       N  0.11053308  0.83885087  0.61054463    -0.43100
H1461       H  0.13577862  0.82179093  0.65848708     0.13000
H1462       H  0.25671598  0.83753994  0.63141086     0.09500
H1463       H  0.17271775  0.89606313  0.60767120     0.10600
H1464       H  0.26622322  0.83974654  0.56681931     0.16400
C1465       C  0.20251399  0.49618065  0.13629095    -0.01800
C1466       C  0.21127865  0.52461516  0.12369100     0.06800
C1467       C  0.21094190  0.55972706  0.13098356    -0.07800
C1468       C  0.20372110  0.56664947  0.15077034     0.04200
C1469       C  0.19688161  0.53798245  0.16363670    -0.15000
C1470       C  0.19531382  0.50307309  0.15604523    -0.08300
C1471       C  0.22439678  0.51773158  0.10353132     0.05200
C1472       C  0.20195761  0.50176260  0.08958177    -0.09500
C1473       C  0.21489824  0.98988133  0.07148604     0.00200
C1474       C  0.25115911  0.99435369  0.06719393     0.00000
C1475       C  0.27346685  0.51243871  0.08068674    -0.13000
C1476       C  0.26019294  0.52406521  0.09872497     0.00500
C1477       C  0.19148840  0.97180016  0.05796737     0.39800
C1478       C  0.28431385  0.54012562  0.11265559     0.36400
C1479       C  0.20233025  0.95942572  0.12963276     0.36200
C1480       C  0.20245727  0.60338168  0.15730146     0.36900
N1481       N  0.17280819  0.95749800  0.04699805    -0.43900
N1482       N  0.30326067  0.55301854  0.12399968    -0.44300
N1483       N  0.20120718  0.63283351  0.16249757    -0.41700
N1484       N  0.20221638  0.93002067  0.12431088    -0.43100
H1485       H  0.18960766  0.48088951  0.16571758     0.13000
H1486       H  0.21709726  0.58168895  0.12124543     0.09500
H1487       H  0.17435819  0.49710903  0.09317953     0.10600
H1488       H  0.30145107  0.51560027  0.07749191     0.16400
C1489       C  0.15034469  0.56578147  0.44561106    -0.01800
C1490       C  0.16498003  0.58617250  0.43027193     0.06800
C1491       C  0.16814545  0.62335191  0.43256622    -0.07800
C1492       C  0.15506540  0.64049205  0.44928442     0.04200
C1493       C  0.13779637  0.62038683  0.46384553    -0.15000
C1494       C  0.13674988  0.58301428  0.46222579    -0.08300
C1495       C  0.17259023  0.57035428  0.41074189     0.05200
C1496       C  0.14458403  0.55451887  0.40036739    -0.09500
C1497       C  0.14813088  0.54528597  0.38059362     0.00200
C1498       C  0.18051144  0.55209193  0.37071960     0.00000
C1499       C  0.20925830  0.56578765  0.38158337    -0.13000
C1500       C  0.20550471  0.57498674  0.40138605     0.00500
C1501       C  0.11702882  0.53161387  0.37072662     0.39800
C1502       C  0.23535580  0.59023825  0.41169968     0.36400
C1503       C  0.14803499  0.52733788  0.44430871     0.36200
C1504       C  0.15789498  0.67889674  0.45076501     0.36900
N1505       N  0.09197535  0.52072399  0.36293129    -0.43900
N1506       N  0.25906114  0.60262283  0.42008816    -0.44300
N1507       N  0.16003348  0.70966916  0.45199451    -0.41700
N1508       N  0.14617650  0.49653596  0.44319281    -0.43100
H1509       H  0.12382417  0.56748303  0.47353695     0.13000
H1510       H  0.17920348  0.63925356  0.42081449     0.09500
H1511       H  0.11905833  0.55130203  0.40745829     0.10600
H1512       H  0.23442742  0.57065554  0.37441268     0.16400
C1513       C  0.36727069  0.53203276  0.39587115    -0.01800
C1514       C  0.39551402  0.52465122  0.40874452     0.06800
C1515       C  0.42990630  0.52106172  0.40137142    -0.07800
C1516       C  0.43664101  0.52535528  0.38136429     0.04200
C1517       C  0.40838482  0.53325718  0.36841562    -0.15000
C1518       C  0.37392939  0.53662501  0.37592061    -0.08300
C1519       C  0.38910521  0.51869720  0.42979416     0.05200
C1520       C  0.38807474  0.98360311  0.43665038    -0.09500
C1521       C  0.37629561  0.97631137  0.45557734     0.00200
C1522       C  0.36483696  0.00453861  0.46784337     0.00000
C1523       C  0.36879055  0.53973659  0.46161708    -0.13000
C1524       C  0.38097636  0.54711186  0.44266888     0.00500
C1525       C  0.37357057  0.93946423  0.46163236     0.39800
C1526       C  0.38391531  0.58378878  0.43643875     0.36400
C1527       C  0.33069043  0.03264052  0.40252226     0.36200
C1528       C  0.47292817  0.52290597  0.37478519     0.36900
N1529       N  0.37119091  0.90998499  0.46649619    -0.43900
N1530       N  0.38656887  0.61313179  0.43138012    -0.44300
N1531       N  0.50206157  0.52097160  0.36960045    -0.41700
N1532       N  0.30159703  0.03318730  0.40784450    -0.43100
H1533       H  0.35200354  0.54223152  0.36611612     0.13000
H1534       H  0.45152260  0.51507069  0.41131421     0.09500
H1535       H  0.39493740  0.96175542  0.42686109     0.10600
H1536       H  0.36019516  0.56138456  0.47109634     0.16400
C1537       C  0.20867161  0.79467311  0.13239602    -0.01800
C1538       C  0.17512094  0.79971961  0.12375250     0.06800
C1539       C  0.14742377  0.81360406  0.13506526    -0.07800
C1540       C  0.15188565  0.82065788  0.15498338     0.04200
C1541       C  0.18516727  0.81427203  0.16403570    -0.15000
C1542       C  0.21349424  0.80204357  0.15240261    -0.08300
C1543       C  0.16602635  0.78554583  0.10407371     0.05200
C1544       C  0.16729603  0.74841972  0.10117854    -0.09500
C1545       C  0.15092689  0.73263942  0.08493208     0.00200
C1546       C  0.13266193  0.75415929  0.07138435     0.00000
C1547       C  0.13347120  0.79144835  0.07350625    -0.13000
C1548       C  0.15007802  0.80727899  0.08970699     0.00500
C1549       C  0.15181813  0.69424391  0.08288081     0.39800
C1550       C  0.14941109  0.84570692  0.09169085     0.36400
C1551       C  0.23812267  0.78118112  0.12108658     0.36200
C1552       C  0.12063026  0.83103041  0.16585404     0.36900
N1553       N  0.15254371  0.66346963  0.08123389    -0.43900
N1554       N  0.14893595  0.87649751  0.09329922    -0.44300
N1555       N  0.09546583  0.83910212  0.17449435    -0.41700
N1556       N  0.26160757  0.77031938  0.11193509    -0.43100
H1557       H  0.23913884  0.79720655  0.15906112     0.13000
H1558       H  0.12135731  0.81670006  0.12855254     0.09500
H1559       H  0.17923281  0.73153988  0.11224440     0.10600
H1560       H  0.11980707  0.80804613  0.06293358     0.16400
C1561       C  0.41738570  0.58287558  0.13068524    -0.01800
C1562       C  0.45285450  0.58727635  0.12448385     0.06800
C1563       C  0.48032802  0.57875557  0.13752345    -0.07800
C1564       C  0.47318361  0.56661224  0.15645601     0.04200
C1565       C  0.43770168  0.56294858  0.16284364    -0.15000
C1566       C  0.41011881  0.57102177  0.14975666    -0.08300
C1567       C  0.46225042  0.60384901  0.10531588     0.05200
C1568       C  0.44830511  0.63763080  0.10066845    -0.09500
C1569       C  0.45987119  0.65622305  0.08409819     0.00200
C1570       C  0.48688693  0.64167214  0.07227236     0.00000
C1571       C  0.49981097  0.60740090  0.07636099    -0.13000
C1572       C  0.48749239  0.58826910  0.09256150     0.00500
C1573       C  0.94469093  0.69074451  0.07992400     0.39800
C1574       C  0.50151705  0.55290702  0.09585627     0.36400
C1575       C  0.38807957  0.59081844  0.11781961     0.36200
C1576       C  0.50290404  0.56098823  0.16945308     0.36900
N1577       N  0.93248748  0.71841260  0.07659536    -0.43900
N1578       N  0.51293102  0.52462092  0.09843171    -0.44300
N1579       N  0.52669501  0.55662652  0.17988509    -0.41700
N1580       N  0.36484517  0.59761740  0.10741134    -0.43100
H1581       H  0.38282773  0.56853530  0.15453875     0.13000
H1582       H  0.50763363  0.58309423  0.13318150     0.09500
H1583       H  0.42924748  0.65016204  0.11039165     0.10600
H1584       H  0.52022686  0.59593279  0.06708267     0.16400
C1585       C  0.25068489  0.86212569  0.43789366    -0.01800
C1586       C  0.21728408  0.86833306  0.42924568     0.06800
C1587       C  0.19080495  0.88573505  0.44021645    -0.07800
C1588       C  0.19801832  0.89877963  0.45911690     0.04200
C1589       C  0.23205796  0.89427928  0.46718535    -0.15000
C1590       C  0.25772873  0.87503955  0.45671000    -0.08300
C1591       C  0.21067370  0.85848263  0.40844513     0.05200
C1592       C  0.21435640  0.82265974  0.40264153    -0.09500
C1593       C  0.21221517  0.81267208  0.38288603     0.00200
C1594       C  0.20530344  0.83878950  0.36848859     0.00000
C1595       C  0.20082073  0.87457438  0.37440791    -0.13000
C1596       C  0.20372026  0.88462942  0.39412352     0.00500
C1597       C  0.21638670  0.77534394  0.37801240     0.39800
C1598       C  0.20063599  0.92205949  0.39916567     0.36400
C1599       C  0.27892947  0.84468724  0.42724742     0.36200
C1600       C  0.17092149  0.91818160  0.46959861     0.36900
N1601       N  0.21992012  0.74539101  0.37421536    -0.43900
N1602       N  0.19812786  0.95203940  0.40317292    -0.44300
N1603       N  0.14923583  0.93365311  0.47809677    -0.41700
N1604       N  0.30129950  0.83057513  0.41858764    -0.43100
H1605       H  0.28409173  0.87198559  0.46284065     0.13000
H1606       H  0.16492860  0.89015004  0.43374819     0.09500
H1607       H  0.21953598  0.80246358  0.41362624     0.10600
H1608       H  0.19546261  0.89492748  0.36353690     0.16400
C1609       C  0.37825805  0.82875956  0.13488803    -0.01800
C1610       C  0.40821523  0.83092699  0.12256351     0.06800
C1611       C  0.44216015  0.82711894  0.13065102    -0.07800
C1612       C  0.44658052  0.82156976  0.15079346     0.04200
C1613       C  0.41654888  0.81968889  0.16314221    -0.15000
C1614       C  0.38262300  0.82257370  0.15492323    -0.08300
C1615       C  0.40446335  0.84150512  0.10177563     0.05200
C1616       C  0.41591402  0.87575565  0.09646470    -0.09500
C1617       C  0.40543220  0.89070385  0.07866522     0.00200
C1618       C  0.38383813  0.87088253  0.06574756     0.00000
C1619       C  0.37531899  0.83535960  0.07015439    -0.13000
C1620       C  0.38533382  0.82056455  0.08812780     0.00500
C1621       C  0.41456438  0.92741216  0.07464945     0.39800
C1622       C  0.37356462  0.78491304  0.09282777     0.36400
C1623       C  0.34292500  0.83515384  0.12753111     0.36200
C1624       C  0.48210578  0.81725030  0.15831497     0.36900
N1625       N  0.42169430  0.95688226  0.07144887    -0.43900
N1626       N  0.36377460  0.75648625  0.09665108    -0.44300
N1627       N  0.01057396  0.81375063  0.16432557    -0.41700
N1628       N  0.31472385  0.84044562  0.12154315    -0.43100
H1629       H  0.35947526  0.82146432  0.16432012     0.13000
H1630       H  0.46522414  0.82912434  0.12124062     0.09500
H1631       H  0.43069899  0.89187528  0.10689354     0.10600
H1632       H  0.35858300  0.82020117  0.06021494     0.16400
C1633       C  0.41942855  0.78367738  0.40381663    -0.01800
C1634       C  0.45461367  0.77825841  0.41014740     0.06800
C1635       C  0.48234360  0.78160811  0.39663572    -0.07800
C1636       C  0.47574155  0.79035691  0.37712398     0.04200
C1637       C  0.44052639  0.79559990  0.37063458    -0.15000
C1638       C  0.41259640  0.79193809  0.38409709    -0.08300
C1639       C  0.46375094  0.76680032  0.43035008     0.05200
C1640       C  0.45196229  0.73335845  0.43695308    -0.09500
C1641       C  0.96634896  0.71808772  0.45389121     0.00200
C1642       C  0.99354960  0.73604533  0.46415777     0.00000
C1643       C  0.50343197  0.77052743  0.45839879    -0.13000
C1644       C  0.48844616  0.78616523  0.44176857     0.00500
C1645       C  0.95465220  0.68300516  0.45977095     0.39800
C1646       C  0.49936625  0.82177317  0.43638928     0.36400
C1647       C  0.39021953  0.78174090  0.41740286     0.36200
C1648       C  0.50564363  0.79189501  0.36393051     0.36900
N1649       N  0.94554510  0.65480943  0.46449748    -0.43900
N1650       N  0.50794165  0.85036477  0.43208630    -0.44300
N1651       N  0.52972152  0.79308207  0.35345667    -0.41700
N1652       N  0.36698358  0.78029002  0.42842614    -0.43100
H1653       H  0.38551425  0.79590113  0.37924961     0.13000
H1654       H  0.50938237  0.77663124  0.40131059     0.09500
H1655       H  0.43299384  0.71830360  0.42828128     0.10600
H1656       H  0.52378995  0.78470167  0.46653967     0.16400
C1657       C  0.93296247  0.30346045  0.34974844     0.80400
N1658       N  0.90924798  0.28305215  0.33964370    -0.77900
C1659       C  0.90672103  0.28604635  0.31982843     0.82900
N1660       N  0.92823120  0.30904692  0.31017551    -0.77800
C1661       C  0.95084841  0.33042283  0.32024122     0.83000
N1662       N  0.95333618  0.32741740  0.33996894    -0.79500
C1663       C  0.91983408  0.31504884  0.18454501     0.80400
N1664       N  0.94447579  0.33391263  0.19477403    -0.77900
C1665       C  0.94808986  0.32914608  0.21436092     0.82900
N1666       N  0.92721128  0.30521185  0.22373160    -0.77800
C1667       C  0.90189344  0.28700367  0.21370614     0.83000
N1668       N  0.89811922  0.29205348  0.19413550    -0.79500
C1669       C  0.69956558  0.32944440  0.34759923     0.80400
N1670       N  0.67485221  0.34761365  0.33727070    -0.77900
C1671       C  0.66733715  0.33862922  0.31850445     0.82900
N1672       N  0.68491161  0.31113292  0.30978702    -0.77800
C1673       C  0.71056771  0.29330539  0.31980063     0.83000
N1674       N  0.71772084  0.30244331  0.33872709    -0.79500
C1675       C  0.92923896  0.05442434  0.18360144     0.80400
N1676       N  0.90556447  0.07500689  0.19355758    -0.77900
C1677       C  0.90253126  0.07221906  0.21333243     0.82900
N1678       N  0.92362921  0.04899974  0.22320289    -0.77800
C1679       C  0.94614108  0.02714746  0.21325239     0.83000
N1680       N  0.94901302  0.03013370  0.19351983    -0.79500
C1681       C  0.97562046  0.35324168  0.30963832     0.42700
N1682       N  0.51733513  0.36725812  0.28993401     0.01600
C1683       C  0.61805213  0.02118594  0.28889756    -0.06300
H1684       H  0.48213475  0.04076641  0.27998550     0.07000
C1685       C  0.48853555  0.47181278  0.21668826    -0.06700
Co1686     Co  0.55510128  0.43366021  0.30241005     0.74200
N1687       N  0.51506658  0.49532539  0.28643308    -0.25900
Co1688     Co  0.55306984  0.49488945  0.26457771     0.74100
C1689       C  0.47085114  0.00408319  0.22393937     0.42800
N1690       N  0.51671643  0.38582352  0.23185202     0.01200
N1691       N  0.51379051  0.49118387  0.24313641     0.01300
N1692       N  0.61732543  0.48182783  0.31392474    -0.46700
H1693       H  0.48691886  0.40171213  0.32959655     0.07000
N1694       N  0.51570335  0.47238560  0.30105638     0.01600
N1695       N  0.59138261  0.49308935  0.24280017     0.01300
C1696       C  0.63383037  0.50666751  0.22359462     0.42900
N1697       N  0.51727372  0.36283541  0.24646486    -0.25300
C1698       C  0.62149903  0.39032314  0.31521045    -0.06200
N1699       N  0.49267515  0.34287691  0.29322471    -0.46400
N1700       N  0.61633211  0.01727205  0.23983895    -0.46600
C1701       C  0.63920425  0.35801869  0.30831648     0.42700
N1702       N  0.59263255  0.47429190  0.30074069     0.01500
N1703       N  0.59451472  0.36526695  0.24658873    -0.25300
N1704       N  0.51760048  0.39287555  0.30329383    -0.25800
N1705       N  0.59386346  0.38816423  0.23194507     0.01200
H1706       H  0.62950767  0.32179666  0.25397989     0.07100
H1707       H  0.62348119  0.45774161  0.20380087     0.07100
N1708       N  0.59209039  0.49726192  0.28612892    -0.25900
N1709       N  0.51452026  0.46568198  0.22971060    -0.25500
N1710       N  0.59496006  0.36875762  0.28969751     0.01600
C1711       C  0.47254423  0.00717813  0.30758278     0.42900
C1712       C  0.49161783  0.33859941  0.24365929    -0.06700
N1713       N  0.59147624  0.46735717  0.22952263    -0.25500
H1714       H  0.48336056  0.45626006  0.20359615     0.07100
N1715       N  0.49077990  0.47879379  0.31427221    -0.46700
H1716       H  0.48639032  0.31573080  0.25284650     0.07100
C1717       C  0.63944708  0.35576970  0.22657947     0.42800
C1718       C  0.49233749  0.38606565  0.31657440    -0.06200
Co1719     Co  0.55593047  0.36523218  0.26818682     0.73800
N1720       N  0.49214043  0.37816598  0.21862097    -0.46400
C1721       C  0.63460039  0.51085242  0.30723555     0.43000
N1722       N  0.62123244  0.34586189  0.29256737    -0.46400
Co1723     Co  0.55408288  0.42663069  0.23026052     0.73900
C1724       C  0.61738021  0.47376827  0.21659093    -0.06700
C1725       C  0.48846475  0.01826479  0.28923590    -0.06300
N1726       N  0.59453082  0.39490473  0.30272935    -0.25800
N1727       N  0.48825315  0.01475835  0.24019408    -0.46600
H1728       H  0.62330042  0.04407684  0.27973116     0.07100
C1729       C  0.62253709  0.34375755  0.24448595    -0.06700
Cl1730     Cl  0.55446444  0.43010425  0.26635768    -0.49700
C1731       C  0.97517293  0.34889851  0.22523863     0.42800
H1732       H  0.62746784  0.40708184  0.32774235     0.07000
N1733       N  0.62005234  0.38296656  0.21933498    -0.46400
C1734       C  0.68967983  0.31659301  0.18562507     0.80400
N1735       N  0.66841313  0.33874340  0.19613976    -0.77900
C1736       C  0.66685131  0.33645219  0.21587271     0.82900
N1737       N  0.68691187  0.31202233  0.22528635    -0.77800
C1738       C  0.70945648  0.29075743  0.21513238     0.83000
N1739       N  0.71059461  0.29269952  0.19523939    -0.79500
C1740       C  0.91377244  0.03872997  0.34723546     0.80400
N1741       N  0.93866073  0.01963046  0.33734232    -0.77900
C1742       C  0.44469963  0.02610547  0.31812170     0.82900
N1743       N  0.92600862  0.05175983  0.30879856    -0.77800
C1744       C  0.90063281  0.07038611  0.31841300     0.83000
N1745       N  0.89446872  0.06387546  0.33763756    -0.79500
C1746       C  0.68381106  0.04962547  0.34903748     0.80400
N1747       N  0.70653528  0.07188157  0.33959904    -0.77900
C1748       C  0.70618227  0.07411216  0.31976598     0.82900
N1749       N  0.68271161  0.05434252  0.30925856    -0.77800
C1750       C  0.66086493  0.03110547  0.31847464     0.83000
N1751       N  0.66143433  0.02888485  0.33830045    -0.79500
C1752       C  0.69093614  0.04344522  0.18488015     0.80400
N1753       N  0.66694054  0.02289800  0.19441754    -0.77900
C1754       C  0.66085243  0.02787263  0.21379246     0.82900
N1755       N  0.67906058  0.05333990  0.22380310    -0.77800
C1756       C  0.70399742  0.07321102  0.21455572     0.83000
N1757       N  0.70982386  0.06831401  0.19507759    -0.79500
C1758       C  0.73011342  0.26393347  0.31031153     0.42700
N1759       N  0.74312886  0.22103327  0.29065497     0.01600
C1760       C  0.89263200  0.11496745  0.28982134    -0.06300
H1761       H  0.91712066  0.25026724  0.28062910     0.07000
C1762       C  0.84785184  0.24342193  0.21689940    -0.06700
Co1763     Co  0.80775521  0.18124689  0.30331719     0.74200
N1764       N  0.87036099  0.21927561  0.28697721    -0.25900
Co1765     Co  0.86879893  0.17984347  0.26530686     0.74100
C1766       C  0.88029461  0.26045744  0.22382073     0.42800
N1767       N  0.76266935  0.21902397  0.23217845     0.01200
N1768       N  0.86666592  0.21832654  0.24344499     0.01300
N1769       N  0.85337270  0.11680544  0.31495452    -0.46700
H1770       H  0.77827255  0.25211939  0.33000962     0.07000
N1771       N  0.84780961  0.21953626  0.30177289     0.01600
N1772       N  0.86605264  0.14001956  0.24375749     0.01300
C1773       C  0.87969927  0.09721325  0.22415598     0.42900
N1774       N  0.74007352  0.22007496  0.24694374    -0.25300
C1775       C  0.76082845  0.11719876  0.31698570    -0.06200
N1776       N  0.71954070  0.24662931  0.29391758    -0.46400
N1777       N  0.88999055  0.11477664  0.24051028    -0.46600
C1778       C  0.72839710  0.10035658  0.30983255     0.42700
N1779       N  0.84676895  0.14193742  0.30182541     0.01500
N1780       N  0.73827955  0.14233154  0.24706185    -0.25300
N1781       N  0.76853803  0.22050147  0.30396786    -0.25800
N1782       N  0.76129158  0.14148285  0.23249463     0.01200
H1783       H  0.69085639  0.11205851  0.25311703     0.07100
H1784       H  0.83201918  0.10905940  0.20411554     0.07100
N1785       N  0.86959596  0.14159836  0.28717105    -0.25900
N1786       N  0.84139126  0.21777319  0.23007461    -0.25500
N1787       N  0.74239546  0.14282798  0.29051965     0.01600
C1788       C  0.88459308  0.26134612  0.30847335     0.42900
C1789       C  0.71762847  0.24721182  0.24422028    -0.06700
N1790       N  0.84073218  0.14029198  0.23039874    -0.25500
H1791       H  0.83225574  0.24883798  0.20394630     0.07100
N1792       N  0.85585568  0.24385829  0.31526008    -0.46700
H1793       H  0.69542050  0.25395903  0.25354065     0.07100
C1794       C  0.72400441  0.10024429  0.22556103     0.42800
C1795       C  0.76248612  0.24659991  0.31710953    -0.06200
Co1796     Co  0.74033066  0.18161283  0.26883242     0.73800
N1797       N  0.75634857  0.24393804  0.21887577    -0.46400
C1798       C  0.88176168  0.09870245  0.30813588     0.43000
N1799       N  0.71835341  0.11773565  0.29351965    -0.46400
Co1800     Co  0.80145390  0.17954856  0.23087598     0.73900
C1801       C  0.84731238  0.11438475  0.21721844    -0.06700
C1802       C  0.89431338  0.24517481  0.28979408    -0.06300
N1803       N  0.76762331  0.14301500  0.30393748    -0.25800
N1804       N  0.89059813  0.24345382  0.24022264    -0.46600
H1805       H  0.91500482  0.10879790  0.28050187     0.07100
C1806       C  0.71387161  0.11686745  0.24406570    -0.06700
Cl1807     Cl  0.80457930  0.18055883  0.26708937    -0.49700
C1808       C  0.72852546  0.26285641  0.22570002     0.42800
H1809       H  0.77621748  0.11150314  0.32997820     0.07000
N1810       N  0.75344739  0.11693868  0.21911120    -0.46400
N1811       N  0.80070064  0.44675816  0.54960452    -0.36400
N1812       N  0.83860226  0.48864547  0.52042078    -0.57000
N1813       N  0.79270262  0.45649226  0.49105237    -0.36400
N1814       N  0.75197639  0.41832169  0.51984544    -0.57000
C1815       C  0.82049788  0.46857797  0.56115048     0.27200
C1816       C  0.77483133  0.43250853  0.56091078     0.27200
C1817       C  0.80864995  0.48271633  0.48088390     0.27200
C1818       C  0.76431561  0.44589390  0.48051354     0.27200
C1819       C  0.86101477  0.49285766  0.53566340     0.35800
C1820       C  0.85698604  0.49708913  0.50411752     0.35800
C1821       C  0.74295338  0.39751609  0.53510780     0.35800
C1822       C  0.74037976  0.40144269  0.50351896     0.35800
C1823       C  0.80706615  0.46808773  0.58006106    -0.21700
C1824       C  0.77853016  0.44523282  0.57994801    -0.21700
C1825       C  0.78988519  0.48932231  0.46377943    -0.21700
C1826       C  0.76181739  0.46593410  0.46353203    -0.21700
C1827       C  0.89362986  0.50493499  0.52907373    -0.22700
C1828       C  0.89111454  0.50742954  0.50897955    -0.22700
C1829       C  0.72457158  0.36767315  0.52848934    -0.22700
C1830       C  0.72328777  0.37000403  0.50836437    -0.22700
C1831       C  0.85173615  0.48705854  0.55544679    -0.18100
C1832       C  0.74986396  0.40616533  0.55490344    -0.18100
C1833       C  0.74417958  0.41515159  0.48446935    -0.18100
C1834       C  0.84265990  0.49621551  0.48505661    -0.18100
H1835       H  0.81710769  0.48227555  0.59276084     0.14800
H1836       H  0.76277440  0.43839566  0.59261959     0.14800
H1837       H  0.79678856  0.50778751  0.45223159     0.14800
H1838       H  0.74271954  0.46287078  0.45179808     0.14800
H1839       H  0.91678254  0.01126541  0.53777613     0.13100
H1840       H  0.91168097  0.01636102  0.49908930     0.13100
H1841       H  0.71345587  0.34635317  0.53719728     0.13100
H1842       H  0.71091373  0.35104637  0.49847793     0.13100
H1843       H  0.80600347  0.44005196  0.53516030     0.26400
H1844       H  0.80311193  0.44357078  0.50318003     0.26400
N1845       N  0.55740491  0.19959367  0.05066000    -0.36400
N1846       N  0.50841297  0.17209527  0.02114062    -0.57000
N1847       N  0.55425488  0.20349999  0.99144397    -0.36400
N1848       N  0.60015888  0.23473206  0.02062739    -0.57000
C1849       C  0.53064461  0.18762257  0.06211708     0.27200
C1850       C  0.57794841  0.22134953  0.06179553     0.27200
C1851       C  0.52562081  0.19386606  0.98083140     0.27200
C1852       C  0.57293343  0.22681169  0.98047869     0.27200
C1853       C  0.49595231  0.15417509  0.03680622     0.35800
C1854       C  0.49481203  0.15581327  0.00510503     0.35800
C1855       C  0.62102097  0.24122819  0.03625601     0.35800
C1856       C  0.61960771  0.24244122  0.00461096     0.35800
C1857       C  0.53457415  0.20163818  0.08085832    -0.21700
C1858       C  0.56408002  0.22314973  0.08059363    -0.21700
C1859       C  0.52592712  0.21129451  0.96295277    -0.21700
C1860       C  0.55583010  0.23206173  0.96270256    -0.21700
C1861       C  0.97320589  0.12718226  0.03069985    -0.22700
C1862       C  0.97273117  0.12805521  0.01054429    -0.22700
C1863       C  0.65383041  0.25370424  0.03016868    -0.22700
C1864       C  0.65292666  0.25442311  0.01002224    -0.22700
C1865       C  0.50435102  0.16240798  0.05651450    -0.18100
C1866       C  0.61005996  0.23794254  0.05591098    -0.18100
C1867       C  0.60655143  0.24085323  0.98531960    -0.18100
C1868       C  0.50186998  0.16626474  0.98569115    -0.18100
H1869       H  0.51822148  0.19673008  0.09356479     0.14800
H1870       H  0.57450240  0.23790987  0.09299942     0.14800
H1871       H  0.50712332  0.20837256  0.95106148     0.14800
H1872       H  0.56440276  0.24834005  0.95053756     0.14800
H1873       H  0.95867236  0.10863924  0.03978256     0.13100
H1874       H  0.95778147  0.11043953  0.00101170     0.13100
H1875       H  0.67597738  0.26165614  0.03928638     0.13100
H1876       H  0.67408855  0.26318342  0.00048416     0.13100
H1877       H  0.56267544  0.19147252  0.03644476     0.26400
H1878       H  0.56227575  0.19207085  0.00451703     0.26400
N1879       N  0.56723612  0.18033220  0.48510326    -0.36400
N1880       N  0.52229124  0.21264587  0.51536435    -0.57000
N1881       N  0.56677235  0.17949439  0.54494900    -0.36400
N1882       N  0.60891611  0.14339214  0.51491631    -0.57000
C1883       C  0.54056002  0.19335029  0.47393164     0.27200
C1884       C  0.58612879  0.15734211  0.47384174     0.27200
C1885       C  0.54121022  0.19360217  0.55651823     0.27200
C1886       C  0.58621686  0.15713325  0.55612356     0.27200
C1887       C  0.50799096  0.22865262  0.49953423     0.35800
C1888       C  0.50846588  0.22901459  0.53131760     0.35800
C1889       C  0.62828042  0.13426763  0.49907585     0.35800
C1890       C  0.62820733  0.13407877  0.53073226     0.35800
C1891       C  0.54319360  0.17904502  0.45517602    -0.21700
C1892       C  0.57151362  0.15609831  0.45519868    -0.21700
C1893       C  0.54490975  0.18026238  0.57537452    -0.21700
C1894       C  0.57289956  0.15708897  0.57506038    -0.21700
C1895       C  0.98422461  0.25480644  0.50547109    -0.22700
C1896       C  0.98459491  0.25507650  0.52561309    -0.22700
C1897       C  0.65987491  0.11856369  0.50484427    -0.22700
C1898       C  0.65979502  0.11841286  0.52497048    -0.22700
C1899       C  0.51476997  0.21889294  0.47983198    -0.18100
C1900       C  0.61711666  0.13849951  0.47949902    -0.18100
C1901       C  0.61719312  0.13859771  0.55028433    -0.18100
C1902       C  0.51598376  0.21976439  0.55095161    -0.18100
H1903       H  0.52660686  0.18447337  0.44261680     0.14800
H1904       H  0.58046914  0.14051200  0.44275553     0.14800
H1905       H  0.52963932  0.18675887  0.58829234     0.14800
H1906       H  0.58279799  0.14253195  0.58758111     0.14800
H1907       H  0.96806024  0.27174957  0.49628210     0.13100
H1908       H  0.96881166  0.27222249  0.53497083     0.13100
H1909       H  0.68076321  0.10827702  0.49553752     0.13100
H1910       H  0.68055479  0.10799667  0.53428511     0.13100
H1911       H  0.57330917  0.18810753  0.49924242     0.26400
H1912       H  0.57211941  0.18646365  0.53066375     0.26400
N1913       N  0.82138860  0.43867181  0.98508623    -0.36400
N1914       N  0.86017382  0.39865420  0.01462961    -0.57000
N1915       N  0.81785546  0.43365100  0.04459538    -0.36400
N1916       N  0.77585798  0.47010760  0.01517422    -0.57000
C1917       C  0.83983861  0.41544599  0.97374137     0.27200
C1918       C  0.79496079  0.45230435  0.97395234     0.27200
C1919       C  0.83305891  0.40699675  0.05491561     0.27200
C1920       C  0.79028327  0.44585041  0.05532012     0.27200
C1921       C  0.88099140  0.39149474  0.99906629     0.35800
C1922       C  0.87819239  0.38784365  0.03060882     0.35800
C1923       C  0.76435859  0.48879605  0.99955927     0.35800
C1924       C  0.76380916  0.48741794  0.03125134     0.35800
C1925       C  0.82507358  0.41450919  0.95512290    -0.21700
C1926       C  0.79699847  0.43788706  0.95521439    -0.21700
C1927       C  0.81489599  0.40224214  0.07238821    -0.21700
C1928       C  0.78790673  0.42680491  0.07264519    -0.21700
C1929       C  0.91237623  0.37575710  0.00516914    -0.22700
C1930       C  0.91052011  0.37331955  0.02523859    -0.22700
C1931       C  0.74374823  0.01762746  0.00570783    -0.22700
C1932       C  0.74357761  0.01683185  0.02584704    -0.22700
C1933       C  0.87059542  0.39624867  0.97939485    -0.18100
C1934       C  0.77055124  0.47911431  0.97983490    -0.18100
C1935       C  0.76888606  0.47550447  0.05060966    -0.18100
C1936       C  0.86456552  0.38888503  0.04977101    -0.18100
H1937       H  0.83375505  0.39881346  0.94265908     0.14800
H1938       H  0.78021159  0.44369628  0.94277907     0.14800
H1939       H  0.82082518  0.38346036  0.08394019     0.14800
H1940       H  0.76893748  0.43054558  0.08437142     0.14800
H1941       H  0.93400088  0.36640812  0.99608464     0.13100
H1942       H  0.93039534  0.36180229  0.03474666     0.13100
H1943       H  0.73040317  0.03714324  0.99667791     0.13100
H1944       H  0.73003839  0.03548853  0.03541435     0.13100
H1945       H  0.82777371  0.44638432  0.99925504     0.26400
H1946       H  0.82738759  0.44483196  0.03175190     0.26400
C1947       C  0.95184544  0.30876154  0.85028404     0.80400
N1948       N  0.97243776  0.33233606  0.84028668    -0.77900
C1949       C  0.97025954  0.33436675  0.82043105     0.82900
N1950       N  0.94683289  0.31342482  0.81059086    -0.77800
C1951       C  0.92684357  0.28933347  0.82036785     0.83000
N1952       N  0.92933432  0.28718553  0.84012767    -0.79500
C1953       C  0.95496775  0.08707938  0.84883701     0.80400
N1954       N  0.97463218  0.06155999  0.83960836    -0.77900
C1955       C  0.96916413  0.05450071  0.82029233     0.82900
N1956       N  0.94398501  0.07272198  0.81032346    -0.77800
C1957       C  0.92491441  0.09856442  0.81934785     0.83000
N1958       N  0.93044126  0.10573029  0.83854617    -0.79500
C1959       C  0.69160021  0.07446319  0.85130428     0.80400
N1960       N  0.71215268  0.09659303  0.84039750    -0.77900
C1961       C  0.70968520  0.09647781  0.82058009     0.82900
N1962       N  0.68679681  0.07379049  0.81158267    -0.77800
C1963       C  0.66506594  0.05264899  0.82233018     0.83000
N1964       N  0.66766973  0.05280086  0.84220447    -0.79500
C1965       C  0.67271643  0.29837840  0.84879038     0.80400
N1966       N  0.69906518  0.28138390  0.83905974    -0.77900
C1967       C  0.70664229  0.28989371  0.82025402     0.82900
N1968       N  0.68810375  0.31619221  0.81116736    -0.77800
C1969       C  0.66133016  0.33314251  0.82080229     0.83000
N1970       N  0.65365813  0.32409392  0.83958992    -0.79500
C1971       C  0.67801630  0.08074358  0.68659514     0.80400
N1972       N  0.65835230  0.05716372  0.69706950    -0.77900
C1973       C  0.66412072  0.05338216  0.71660106     0.82900
N1974       N  0.68939011  0.07336585  0.72561228    -0.77800
C1975       C  0.70814500  0.09779663  0.71529400     0.83000
N1976       N  0.70253784  0.10130571  0.69581432    -0.79500
C1977       C  0.94289526  0.06904422  0.68529717     0.80400
N1978       N  0.92176413  0.09252179  0.69508555    -0.77900
C1979       C  0.92321330  0.09511487  0.71490980     0.82900
N1980       N  0.94545572  0.07354333  0.72511054    -0.77800
C1981       C  0.96753813  0.05088961  0.71542876     0.83000
N1982       N  0.96597365  0.04852502  0.69558847    -0.79500
C1983       C  0.89970662  0.26869902  0.81001563     0.42700
N1984       N  0.85600083  0.25725658  0.79100838     0.01600
C1985       C  0.75081563  0.10627462  0.79045453    -0.06300
H1986       H  0.88665358  0.08297094  0.78121729     0.07000
C1987       C  0.88120778  0.15075762  0.71809671    -0.06700
Co1988     Co  0.81634161  0.19231727  0.80363687     0.74200
N1989       N  0.85441431  0.12912610  0.78772306    -0.25900
Co1990     Co  0.81618781  0.13031485  0.76596587     0.74100
C1991       C  0.89805150  0.11822552  0.72530103     0.42800
N1992       N  0.85555013  0.23765590  0.73300136     0.01200
N1993       N  0.85536043  0.13239159  0.74447183     0.01300
N1994       N  0.75297432  0.14598571  0.81556640    -0.46700
H1995       H  0.88725868  0.22059238  0.82971459     0.07000
N1996       N  0.85446776  0.15248192  0.80225524     0.01600
N1997       N  0.77786781  0.13275340  0.74426055     0.01300
C1998       C  0.73548488  0.11907852  0.72495303     0.42900
N1999       N  0.85550942  0.26103603  0.74755489    -0.25300
C2000       C  0.75206301  0.23795845  0.81692666    -0.06200
N2001       N  0.88222534  0.28019472  0.79398141    -0.46400
N2002       N  0.75259874  0.10885982  0.74128166    -0.46600
C2003       C  0.73507957  0.27058296  0.81020517     0.42700
N2004       N  0.77748638  0.15284268  0.80220432     0.01500
N2005       N  0.77839130  0.26087623  0.74762003    -0.25300
N2006       N  0.85521905  0.23163559  0.80422218    -0.25800
N2007       N  0.77849341  0.23774004  0.73293932     0.01200
H2008       H  0.74570204  0.30654429  0.75438281     0.07100
H2009       H  0.74700242  0.16696743  0.70482441     0.07100
N2010       N  0.77722146  0.12961605  0.78759301    -0.25900
N2011       N  0.85531669  0.15767840  0.73104882    -0.25500
N2012       N  0.77818035  0.25817417  0.79105482     0.01600
C2013       C  0.89722873  0.11724487  0.80865623     0.42900
C2014       C  0.88160020  0.28468983  0.74469147    -0.06700
N2015       N  0.77840346  0.15801548  0.73083734    -0.25500
H2016       H  0.88692429  0.16606917  0.70507406     0.07100
N2017       N  0.87953504  0.14609328  0.81534364    -0.46700
H2018       H  0.88729982  0.30766393  0.75383824     0.07100
C2019       C  0.73524856  0.27272165  0.72677039     0.42800
C2020       C  0.88167722  0.23683699  0.81701663    -0.06200
Co2021     Co  0.81703474  0.26014687  0.76934743     0.73800
N2022       N  0.88032669  0.24444170  0.71978194    -0.46400
C2023       C  0.73477906  0.11732998  0.80892407     0.43000
N2024       N  0.75263993  0.28186977  0.79417063    -0.46400
Co2025     Co  0.81696917  0.19785165  0.73147178     0.73900
C2026       C  0.75256863  0.15146557  0.71780229    -0.06700
C2027       C  0.88075154  0.10578280  0.79043855    -0.06300
N2028       N  0.77830981  0.23231710  0.80413160    -0.25800
N2029       N  0.88041532  0.10819786  0.74153352    -0.46600
H2030       H  0.74504581  0.08322126  0.78138273     0.07100
C2031       C  0.75170142  0.28387276  0.74507559    -0.06700
Cl2032     Cl  0.81662267  0.19517504  0.76759275    -0.49700
C2033       C  0.89787344  0.27357178  0.72633743     0.42800
H2034       H  0.74608870  0.22159677  0.82952222     0.07000
N2035       N  0.75340467  0.24430966  0.71983712    -0.46400
C2036       C  0.95684860  0.30257168  0.68622613     0.80400
N2037       N  0.93166055  0.28464182  0.69644533    -0.77900
C2038       C  0.92562890  0.29241660  0.71557119     0.82900
N2039       N  0.94479576  0.31838167  0.72457596    -0.77800
C2040       C  0.97065518  0.33588005  0.71470208     0.83000
N2041       N  0.97676592  0.32786794  0.69552107    -0.79500
C2042       C  0.68665062  0.31518362  0.68607795     0.80400
N2043       N  0.66443244  0.33725508  0.69615107    -0.77900
C2044       C  0.66462731  0.33733943  0.71606840     0.82900
N2045       N  0.68730445  0.31579755  0.72583396    -0.77800
C2046       C  0.70865369  0.29297373  0.71595782     0.83000
N2047       N  0.70846244  0.29281530  0.69609637    -0.79500
C2048       C  0.64148948  0.36199042  0.81129285     0.42700
N2049       N  0.62880924  0.40555483  0.79231689     0.01600
C2050       C  0.97786585  0.00927395  0.79186483    -0.06300
H2051       H  0.95661888  0.37196068  0.78204175     0.07000
C2052       C  0.52369071  0.38103853  0.71824364    -0.06700
Co2053     Co  0.56384296  0.44455410  0.80523190     0.74200
N2054       N  0.50180974  0.40511583  0.78880717    -0.25900
Co2055     Co  0.00236926  0.44428828  0.76722118     0.74100
C2056       C  0.99109761  0.36390096  0.72474679     0.42800
N2057       N  0.60895731  0.40650533  0.73404153     0.01200
N2058       N  0.50465941  0.40557669  0.74505769     0.01300
N2059       N  0.51724731  0.00858963  0.81697492    -0.46700
H2060       H  0.59328994  0.37326283  0.83106770     0.07000
N2061       N  0.52452248  0.40549531  0.80354992     0.01600
N2062       N  0.00443467  0.48389330  0.74580912     0.01300
C2063       C  0.99043945  0.02640692  0.72634102     0.42900
N2064       N  0.63179556  0.40616874  0.74871582    -0.25300
C2065       C  0.61033811  0.00917984  0.81935285    -0.06200
N2066       N  0.65227618  0.37976061  0.79520559    -0.46400
N2067       N  0.98021939  0.00890465  0.74262459    -0.46600
C2068       C  0.64259199  0.02639534  0.81227861     0.42700
N2069       N  0.52421866  0.48323761  0.80384213     0.01500
N2070       N  0.63195304  0.48395780  0.74908189    -0.25300
N2071       N  0.60341472  0.40580428  0.80561434    -0.25800
N2072       N  0.60882394  0.48403212  0.73455267     0.01200
H2073       H  0.67829319  0.01596573  0.75521615     0.07100
H2074       H  0.53823631  0.01494624  0.70631798     0.07100
N2075       N  0.00129148  0.48287997  0.78920681    -0.25900
N2076       N  0.53004215  0.40638839  0.73177156    -0.25500
N2077       N  0.62860753  0.48388361  0.79258080     0.01600
C2078       C  0.48982928  0.36182870  0.80973431     0.42900
C2079       C  0.65501955  0.37972218  0.74575465    -0.06700
N2080       N  0.52974512  0.48378021  0.73247295    -0.25500
H2081       H  0.53933715  0.37604387  0.70524377     0.07100
N2082       N  0.51793823  0.38029075  0.81664404    -0.46700
H2083       H  0.67768533  0.37379656  0.75488919     0.07100
C2084       C  0.64451342  0.02660934  0.72777917     0.42800
C2085       C  0.60926108  0.37926759  0.81834375    -0.06200
Co2086     Co  0.63096784  0.44487443  0.77071281     0.73800
N2087       N  0.61590504  0.38188318  0.72055647    -0.46400
C2088       C  0.98850597  0.02607720  0.81017366     0.43000
N2089       N  0.65247079  0.00922525  0.79576133    -0.46400
Co2090     Co  0.56948028  0.44520372  0.73283502     0.73900
C2091       C  0.52294773  0.00953875  0.71937353    -0.06700
C2092       C  0.97901181  0.37814961  0.79136036    -0.06300
N2093       N  0.60353602  0.48340431  0.80606132    -0.25800
N2094       N  0.98071299  0.38052161  0.74138683    -0.46600
H2095       H  0.95539466  0.01495140  0.78253897     0.07100
C2096       C  0.65540605  0.01033288  0.74616359    -0.06700
Cl2097     Cl  0.56665921  0.44471805  0.76901603    -0.49700
C2098       C  0.64433653  0.36376937  0.72717790     0.42800
H2099       H  0.59514449  0.01451856  0.83247675     0.07000
N2100       N  0.61568415  0.00886492  0.72125717    -0.46400
C2101       C  0.67997286  0.05617919  0.90556086    -0.01800
C2102       C  0.71531886  0.04992066  0.91149819     0.06800
C2103       C  0.74263949  0.05411918  0.89777437    -0.07800
C2104       C  0.73548817  0.06378106  0.87844919     0.04200
C2105       C  0.70007056  0.06884244  0.87226476    -0.15000
C2106       C  0.67259863  0.06514889  0.88599937    -0.08300
C2107       C  0.72478952  0.03572943  0.93120393     0.05200
C2108       C  0.70955400  0.50302898  0.93751750    -0.09500
C2109       C  0.72247233  0.48546566  0.95414577     0.00200
C2110       C  0.75204760  0.49943304  0.96421310     0.00000
C2111       C  0.76612079  0.03265361  0.95857027    -0.13000
C2112       C  0.75243762  0.05102826  0.94245858     0.00500
C2113       C  0.70579952  0.45265355  0.96027517     0.39800
C2114       C  0.76752989  0.08533620  0.93764573     0.36400
C2115       C  0.65097810  0.05362695  0.91926419     0.36200
C2116       C  0.76501550  0.06567218  0.86501357     0.36900
N2117       N  0.69224587  0.42648850  0.96525322    -0.43900
N2118       N  0.77967261  0.11284643  0.93386928    -0.44300
N2119       N  0.78870186  0.06716249  0.85428245    -0.41700
N2120       N  0.62786907  0.05149307  0.93033460    -0.43100
H2121       H  0.64535745  0.06900332  0.88139814     0.13000
H2122       H  0.76977942  0.04845336  0.90199169     0.09500
H2123       H  0.68853010  0.49072429  0.92900794     0.10600
H2124       H  0.78845013  0.04367687  0.96659180     0.16400
C2125       C  0.92386187  0.38431699  0.93302308    -0.01800
C2126       C  0.92254540  0.34689325  0.93027631     0.06800
C2127       C  0.90754251  0.32546700  0.94492389    -0.07800
C2128       C  0.89157618  0.34094210  0.96140290     0.04200
C2129       C  0.89161698  0.37843132  0.96371387    -0.15000
C2130       C  0.90885958  0.39967170  0.94979310    -0.08300
C2131       C  0.93220402  0.33051059  0.91114589     0.05200
C2132       C  0.96667872  0.33464123  0.90379507    -0.09500
C2133       C  0.97466938  0.32573128  0.88430626     0.00200
C2134       C  0.94787623  0.31184334  0.87190791     0.00000
C2135       C  0.91428995  0.30474548  0.87995913    -0.13000
C2136       C  0.90617149  0.31427094  0.89923885     0.00500
C2137       C  0.01025641  0.33202796  0.87743703     0.39800
C2138       C  0.87006675  0.30980596  0.90586145     0.36400
C2139       C  0.93774915  0.40775464  0.91812277     0.36200
C2140       C  0.87314288  0.31810122  0.97500821     0.36900
N2141       N  0.53887367  0.33744746  0.87215622    -0.43900
N2142       N  0.84115984  0.30626457  0.91116799    -0.44300
N2143       N  0.85826166  0.29993933  0.98593917    -0.41700
N2144       N  0.94875778  0.42648178  0.90613069    -0.43100
H2145       H  0.90874785  0.42849914  0.95151172     0.13000
H2146       H  0.90644595  0.29673109  0.94287887     0.09500
H2147       H  0.98694259  0.34649468  0.91304773     0.10600
H2148       H  0.89328887  0.29405408  0.87079556     0.16400
C2149       C  0.64302568  0.07749889  0.59096486    -0.01800
C2150       C  0.65925231  0.10205704  0.60385451     0.06800
C2151       C  0.66877245  0.13603564  0.59712617    -0.07800
C2152       C  0.65899227  0.14701724  0.57836394     0.04200
C2153       C  0.63917692  0.12380868  0.56626802    -0.15000
C2154       C  0.63296945  0.08856567  0.57222614    -0.08300
C2155       C  0.66354244  0.09418170  0.62487415     0.05200
C2156       C  0.69768892  0.08953924  0.63240816    -0.09500
C2157       C  0.70289503  0.08422960  0.65245268     0.00200
C2158       C  0.67345928  0.08368470  0.66525328     0.00000
C2159       C  0.63919770  0.08745944  0.65761158    -0.13000
C2160       C  0.63404434  0.09313430  0.63757875     0.00500
C2161       C  0.73859546  0.07851121  0.65940256     0.39800
C2162       C  0.59847829  0.09943297  0.63053897     0.36400
C2163       C  0.63488249  0.04157477  0.59710861     0.36200
C2164       C  0.66676922  0.18314042  0.57237204     0.36900
N2165       N  0.76722587  0.07382772  0.66490586    -0.43900
N2166       N  0.56997168  0.10459320  0.62496425    -0.44300
N2167       N  0.67295006  0.21203757  0.56747754    -0.41700
N2168       N  0.62850278  0.01281492  0.60215611    -0.43100
H2169       H  0.61780645  0.07071743  0.56287460     0.13000
H2170       H  0.68185987  0.15469553  0.60695868     0.09500
H2171       H  0.72028692  0.09026794  0.62259862     0.10600
H2172       H  0.61655836  0.08727887  0.66740163     0.16400
C2173       C  0.00121331  0.28721317  0.59116334    -0.01800
C2174       C  0.97977713  0.26739932  0.60417141     0.06800
C2175       C  0.96385283  0.23569432  0.59734331    -0.07800
C2176       C  0.47190845  0.22194507  0.57875275     0.04200
C2177       C  0.49760101  0.23906282  0.56712527    -0.15000
C2178       C  0.01074996  0.27246205  0.57301720    -0.08300
C2179       C  0.97441778  0.27830531  0.62504040     0.05200
C2180       C  0.93981250  0.27988118  0.63249539    -0.09500
C2181       C  0.93348504  0.28751269  0.65229575     0.00200
C2182       C  0.96219084  0.29478698  0.66507852     0.00000
C2183       C  0.99679853  0.29364849  0.65760209    -0.13000
C2184       C  0.00317847  0.28452816  0.63796708     0.00500
C2185       C  0.89715766  0.28810267  0.65893541     0.39800
C2186       C  0.53946617  0.27917023  0.63192660     0.36400
C2187       C  0.01362448  0.32263586  0.59606093     0.36200
C2188       C  0.45586903  0.18875520  0.57249920     0.36900
N2189       N  0.86801660  0.28830110  0.66420963    -0.43900
N2190       N  0.56856574  0.27463656  0.62719693    -0.44300
N2191       N  0.44308302  0.16219123  0.56738643    -0.41700
N2192       N  0.02339560  0.35112597  0.59991257    -0.43100
H2193       H  0.02963365  0.28629028  0.56378126     0.13000
H2194       H  0.94631036  0.22079177  0.60686900     0.09500
H2195       H  0.91756520  0.27473394  0.62280886     0.10600
H2196       H  0.01905409  0.29833008  0.66735384     0.16400
C2197       C  0.69163578  0.28550109  0.90252289    -0.01800
C2198       C  0.65768445  0.27802676  0.90995230     0.06800
C2199       C  0.62857892  0.27650759  0.89714743    -0.07800
C2200       C  0.63294130  0.28256452  0.87706784     0.04200
C2201       C  0.66682979  0.29067471  0.86967031    -0.15000
C2202       C  0.69599719  0.29163365  0.88246378    -0.08300
C2203       C  0.65175739  0.27083179  0.93096466     0.05200
C2204       C  0.63453995  0.29675535  0.94239367    -0.09500
C2205       C  0.62308464  0.28875185  0.96136052     0.00200
C2206       C  0.62838242  0.25417692  0.96887303     0.00000
C2207       C  0.64806616  0.22919808  0.95803622    -0.13000
C2208       C  0.65991853  0.23732677  0.93916036     0.00500
C2209       C  0.60311382  0.31512846  0.97218719     0.39800
C2210       C  0.67817766  0.21014492  0.92797237     0.36400
C2211       C  0.72211073  0.28751675  0.91528138     0.36200
C2212       C  0.60286793  0.27823269  0.86417556     0.36900
N2213       N  0.58702916  0.33615357  0.98091583    -0.43900
N2214       N  0.69292360  0.18845587  0.91900048    -0.44300
N2215       N  0.57901113  0.27435365  0.85371157    -0.41700
N2216       N  0.74643901  0.28910957  0.92558150    -0.43100
H2217       H  0.72214874  0.29775723  0.87680633     0.13000
H2218       H  0.60253401  0.27003121  0.90284229     0.09500
H2219       H  0.62854880  0.32263345  0.93612472     0.10600
H2220       H  0.65192179  0.20250894  0.96378321     0.16400
C2221       C  0.50600209  0.11432289  0.93897538    -0.01800
C2222       C  0.97200951  0.11998037  0.93102498     0.06800
C2223       C  0.94582305  0.13663696  0.94252583    -0.07800
C2224       C  0.95392658  0.14974015  0.96129144     0.04200
C2225       C  0.98829327  0.14499548  0.96890420    -0.15000
C2226       C  0.51352082  0.12595303  0.95794841    -0.08300
C2227       C  0.96477979  0.11136242  0.91019466     0.05200
C2228       C  0.96821502  0.07588487  0.90372802    -0.09500
C2229       C  0.96566975  0.06723233  0.88380662     0.00200
C2230       C  0.95913684  0.09446979  0.86999857     0.00000
C2231       C  0.95481007  0.12981305  0.87659721    -0.13000
C2232       C  0.95787521  0.13849310  0.89645128     0.00500
C2233       C  0.96887998  0.03016843  0.87810524     0.39800
C2234       C  0.95549682  0.17562692  0.90219136     0.36400
C2235       C  0.53465621  0.10031075  0.92719677     0.36200
C2236       C  0.92769982  0.17031969  0.97178197     0.36900
N2237       N  0.97163043  0.50056610  0.87350591    -0.43900
N2238       N  0.95363772  0.20540691  0.90671842    -0.44300
N2239       N  0.90672607  0.18692769  0.98018389    -0.41700
N2240       N  0.55750809  0.08954163  0.91754063    -0.43100
H2241       H  0.54026304  0.12314179  0.96359988     0.13000
H2242       H  0.91968432  0.14112524  0.93640209     0.09500
H2243       H  0.97351186  0.05499040  0.91429517     0.10600
H2244       H  0.94978348  0.15094641  0.86613213     0.16400
C2245       C  0.90776916  0.48853933  0.60147693    -0.01800
C2246       C  0.90865008  0.02556450  0.60593977     0.06800
C2247       C  0.89520206  0.04997681  0.59227623    -0.07800
C2248       C  0.87864827  0.03811267  0.57505419     0.04200
C2249       C  0.87536610  0.50107262  0.57129387    -0.15000
C2250       C  0.89133822  0.47673294  0.58419046    -0.08300
C2251       C  0.91831170  0.03875260  0.62582511     0.05200
C2252       C  0.95363216  0.03759412  0.63227151    -0.09500
C2253       C  0.96273268  0.04876604  0.65132155     0.00200
C2254       C  0.93611103  0.06127196  0.66425149     0.00000
C2255       C  0.90100383  0.06327301  0.65746776    -0.13000
C2256       C  0.89194884  0.05197219  0.63857668     0.00500
C2257       C  0.99955579  0.04785053  0.65707802     0.39800
C2258       C  0.85504700  0.05259793  0.63291129     0.36400
C2259       C  0.92142273  0.46226041  0.61493031     0.36200
C2260       C  0.86332564  0.06433752  0.56214036     0.36900
N2261       N  0.52905252  0.04729489  0.66172850    -0.43900
N2262       N  0.82551006  0.05298448  0.62834545    -0.44300
N2263       N  0.85130189  0.08552220  0.55178697    -0.41700
N2264       N  0.93235993  0.44106145  0.62563896    -0.43100
H2265       H  0.88917395  0.44830893  0.58125687     0.13000
H2266       H  0.89591263  0.07832869  0.59562698     0.09500
H2267       H  0.97403194  0.02779540  0.62243799     0.10600
H2268       H  0.88013334  0.07226981  0.66723321     0.16400
C2269       C  0.66632010  0.33293880  0.63255924    -0.01800
C2270       C  0.70066166  0.33758213  0.62472347     0.06800
C2271       C  0.73009473  0.33280445  0.63700849    -0.07800
C2272       C  0.72603118  0.32389711  0.65670858     0.04200
C2273       C  0.69170218  0.32025724  0.66475262    -0.15000
C2274       C  0.66209841  0.32471794  0.65249458    -0.08300
C2275       C  0.70719266  0.35067649  0.60443906     0.05200
C2276       C  0.69205658  0.38323736  0.59854417    -0.09500
C2277       C  0.70349957  0.40031383  0.58145558     0.00200
C2278       C  0.73151069  0.38549779  0.57043886     0.00000
C2279       C  0.74481085  0.35183136  0.57546157    -0.13000
C2280       C  0.73242678  0.33405682  0.59208987     0.00500
C2281       C  0.68748362  0.43386291  0.57601661     0.39800
C2282       C  0.74669497  0.29919915  0.59646355     0.36400
C2283       C  0.63516725  0.33643057  0.62044060     0.36200
C2284       C  0.75769130  0.32116659  0.66854305     0.36900
N2285       N  0.67452912  0.46066227  0.57159829    -0.47500
N2286       N  0.75812293  0.27125630  0.59995160    -0.44300
N2287       N  0.78307749  0.31897617  0.67798852    -0.41700
N2288       N  0.61031800  0.33935833  0.61063431    -0.43100
H2289       H  0.63566123  0.32199947  0.65853392     0.13000
H2290       H  0.75655791  0.33733633  0.63133306     0.09500
H2291       H  0.67266723  0.39635346  0.60782447     0.10600
H2292       H  0.76577326  0.33999130  0.56671595     0.16400
C2293       C  0.70233590  0.99610484  0.13632566    -0.01800
C2294       C  0.71095013  0.02451711  0.12367883     0.06800
C2295       C  0.71049375  0.05966010  0.13092582    -0.07800
C2296       C  0.70330356  0.06664257  0.15071088     0.04200
C2297       C  0.69663448  0.03800671  0.16362292    -0.15000
C2298       C  0.69518197  0.00305779  0.15607883    -0.08300
C2299       C  0.72401179  0.01760304  0.10351006     0.05200
C2300       C  0.70157499  0.00150385  0.08960259    -0.09500
C2301       C  0.71531594  0.49011657  0.07147912     0.00200
C2302       C  0.75161143  0.49445669  0.06723560     0.00000
C2303       C  0.77299346  0.01247240  0.08059748    -0.13000
C2304       C  0.75975585  0.02408754  0.09864445     0.00500
C2305       C  0.69190454  0.47210969  0.05793176     0.39800
C2306       C  0.78388202  0.04030628  0.11251659     0.36400
C2307       C  0.70241433  0.45953139  0.12954872     0.36200
C2308       C  0.70186442  0.10339676  0.15719030     0.36900
N2309       N  0.67323322  0.45785541  0.04693932    -0.43900
N2310       N  0.80286051  0.05332769  0.12380026    -0.44300
N2311       N  0.70046429  0.13286980  0.16233719    -0.41700
N2312       N  0.70223327  0.43015432  0.12418075    -0.43100
H2313       H  0.68959399  0.98089494  0.16578652     0.13000
H2314       H  0.71651802  0.08160434  0.12115095     0.09500
H2315       H  0.67400932  0.99675114  0.09323976     0.10600
H2316       H  0.80094880  0.01574823  0.07736018     0.16400
C2317       C  0.65025845  0.06591967  0.44559953    -0.01800
C2318       C  0.66491290  0.08620673  0.43022843     0.06800
C2319       C  0.66812616  0.12339317  0.43245109    -0.07800
C2320       C  0.65509310  0.14064723  0.44914301     0.04200
C2321       C  0.63786589  0.12063575  0.46375982    -0.15000
C2322       C  0.63674489  0.08325823  0.46219737    -0.08300
C2323       C  0.67250524  0.07027987  0.41073202     0.05200
C2324       C  0.64444832  0.05458017  0.40034027    -0.09500
C2325       C  0.64801010  0.04532689  0.38057161     0.00200
C2326       C  0.68045076  0.05199339  0.37072845     0.00000
C2327       C  0.70923732  0.06553049  0.38161419    -0.13000
C2328       C  0.70547655  0.07472293  0.40141400     0.00500
C2329       C  0.61688047  0.03178278  0.37067674     0.39800
C2330       C  0.73539268  0.08974536  0.41177007     0.36400
C2331       C  0.64784261  0.02747907  0.44434816     0.36200
C2332       C  0.65788337  0.17906802  0.45052489     0.36900
N2333       N  0.59180662  0.02098728  0.36286187    -0.43900
N2334       N  0.75916517  0.10191994  0.42019218    -0.44300
N2335       N  0.65996343  0.20985532  0.45166585    -0.41700
N2336       N  0.64589259  0.99667838  0.44327708    -0.43100
H2337       H  0.62382312  0.06780592  0.47354266     0.13000
H2338       H  0.67918317  0.13920591  0.42066235     0.09500
H2339       H  0.61888864  0.05149312  0.40741189     0.10600
H2340       H  0.73445052  0.07026734  0.37446389     0.16400
C2341       C  0.86692569  0.03146533  0.39577601    -0.01800
C2342       C  0.89518236  0.02448184  0.40870850     0.06800
C2343       C  0.92964840  0.02119099  0.40139947    -0.07800
C2344       C  0.93644555  0.02544671  0.38139847     0.04200
C2345       C  0.90818547  0.03304559  0.36840078    -0.15000
C2346       C  0.87365167  0.03605868  0.37583429    -0.08300
C2347       C  0.88875201  0.01871646  0.42976764     0.05200
C2348       C  0.88803528  0.48350406  0.43654063    -0.09500
C2349       C  0.87620392  0.47609914  0.45544535     0.00200
C2350       C  0.86504623  0.50429116  0.46782341     0.00000
C2351       C  0.86817124  0.03993942  0.46149822    -0.13000
C2352       C  0.88026581  0.04720450  0.44252196     0.00500
C2353       C  0.87315174  0.43920570  0.46136856     0.39800
C2354       C  0.88271277  0.08382873  0.43613605     0.36400
C2355       C  0.83109460  0.53360425  0.40268709     0.36200
C2356       C  0.97278273  0.02328269  0.37487318     0.36900
N2357       N  0.87052108  0.40968896  0.46612509    -0.43900
N2358       N  0.88495623  0.11313415  0.43095433    -0.44300
N2359       N  0.00195523  0.02156663  0.36973304    -0.41700
N2360       N  0.80204813  0.53447243  0.40807318    -0.43100
H2361       H  0.85173105  0.04140203  0.36598109     0.13000
H2362       H  0.95127193  0.01548246  0.41138828     0.09500
H2363       H  0.89464164  0.46170606  0.42666396     0.10600
H2364       H  0.85930608  0.06160647  0.47088751     0.16400
C2365       C  0.70882108  0.29430243  0.13244424    -0.01800
C2366       C  0.67532361  0.29947470  0.12376159     0.06800
C2367       C  0.64766863  0.31358095  0.13502410    -0.07800
C2368       C  0.65210935  0.32074960  0.15493072     0.04200
C2369       C  0.68531747  0.31419841  0.16403069    -0.15000
C2370       C  0.71361424  0.30174851  0.15244380    -0.08300
C2371       C  0.66622159  0.28528370  0.10408755     0.05200
C2372       C  0.66738331  0.24814777  0.10121252    -0.09500
C2373       C  0.65097665  0.23239006  0.08497081     0.00200
C2374       C  0.63278204  0.25394418  0.07141023     0.00000
C2375       C  0.63370054  0.29123262  0.07351254    -0.13000
C2376       C  0.65034871  0.30703946  0.08970518     0.00500
C2377       C  0.65174118  0.19398720  0.08293972     0.39800
C2378       C  0.64978104  0.34547211  0.09167166     0.36400
C2379       C  0.73825265  0.28063188  0.12118324     0.36200
C2380       C  0.62089069  0.33145969  0.16573530     0.36900
N2381       N  0.65235347  0.16320813  0.08130527    -0.43900
N2382       N  0.64937965  0.37626481  0.09327299    -0.44300
N2383       N  0.59574615  0.33981429  0.17431289    -0.41700
N2384       N  0.76173167  0.26963677  0.11207484    -0.43100
H2385       H  0.73921122  0.29680276  0.15913391     0.13000
H2386       H  0.62164165  0.31679440  0.12848066     0.09500
H2387       H  0.67925632  0.23124978  0.11229075     0.10600
H2388       H  0.62008738  0.30785370  0.06293080     0.16400
C2389       C  0.91728426  0.08313240  0.13081131    -0.01800
C2390       C  0.95275157  0.08721551  0.12454098     0.06800
C2391       C  0.98022800  0.07833851  0.13750607    -0.07800
C2392       C  0.97309666  0.06616144  0.15643392     0.04200
C2393       C  0.93762196  0.06282153  0.16289405    -0.15000
C2394       C  0.91003382  0.07123028  0.14987418    -0.08300
C2395       C  0.96217491  0.10382085  0.10538487     0.05200
C2396       C  0.94850626  0.13775922  0.10083148    -0.09500
C2397       C  0.96009897  0.15633596  0.08426264     0.00200
C2398       C  0.98687529  0.14160049  0.07233590     0.00000
C2399       C  0.99953147  0.10719176  0.07634045    -0.13000
C2400       C  0.98718495  0.08808830  0.09254581     0.00500
C2401       C  0.44525809  0.19105941  0.08021656     0.39800
C2402       C  0.00096653  0.05260535  0.09576618     0.36400
C2403       C  0.88796040  0.09148847  0.11803750     0.36200
C2404       C  0.00285918  0.06018214  0.16935277     0.36900
N2405       N  0.43337019  0.21891031  0.07699847    -0.43900
N2406       N  0.01219426  0.02422742  0.09828920    -0.44300
N2407       N  0.02668501  0.05553584  0.17972267    -0.41700
N2408       N  0.86470394  0.09862458  0.10771328    -0.43100
H2409       H  0.88275094  0.06899655  0.15470843     0.13000
H2410       H  0.00754459  0.08243531  0.13311477     0.09500
H2411       H  0.92965789  0.15042007  0.11062928     0.10600
H2412       H  0.01977608  0.09559250  0.06699614     0.16400
C2413       C  0.75047406  0.36226920  0.43789804    -0.01800
C2414       C  0.71703576  0.36840296  0.42927727     0.06800
C2415       C  0.69055815  0.38576679  0.44026779    -0.07800
C2416       C  0.69780047  0.39883578  0.45916108     0.04200
C2417       C  0.73188234  0.39443742  0.46719343    -0.15000
C2418       C  0.75755830  0.37524019  0.45669783    -0.08300
C2419       C  0.71036986  0.35848016  0.40849084     0.05200
C2420       C  0.71412897  0.32265197  0.40270966    -0.09500
C2421       C  0.71198381  0.31261047  0.38296148     0.00200
C2422       C  0.70497392  0.33867449  0.36854890     0.00000
C2423       C  0.70039198  0.37445792  0.37444923    -0.13000
C2424       C  0.70330238  0.38456935  0.39415478     0.00500
C2425       C  0.71628808  0.27528746  0.37811304     0.39800
C2426       C  0.70012146  0.42200480  0.39916473     0.36400
C2427       C  0.77870003  0.34480598  0.42724882     0.36200
C2428       C  0.67066150  0.41810284  0.46968344     0.36900
N2429       N  0.71993617  0.24533772  0.37434225    -0.43900
N2430       N  0.69753299  0.45199356  0.40313528    -0.44300
N2431       N  0.64892792  0.43344652  0.47821369    -0.41700
N2432       N  0.80105064  0.33065704  0.41859161    -0.43100
H2433       H  0.78394514  0.37223957  0.46280525     0.13000
H2434       H  0.66464673  0.39010514  0.43382671     0.09500
H2435       H  0.71939003  0.30249683  0.41370526     0.10600
H2436       H  0.69496290  0.39477586  0.36356913     0.16400
C2437       C  0.87836495  0.32855426  0.13488813    -0.01800
C2438       C  0.90831652  0.33076347  0.12256445     0.06800
C2439       C  0.94226510  0.32689151  0.13063330    -0.07800
C2440       C  0.94669829  0.32125560  0.15076543     0.04200
C2441       C  0.91667460  0.31936448  0.16311910    -0.15000
C2442       C  0.88274132  0.32229190  0.15491398    -0.08300
C2443       C  0.90455603  0.34141186  0.10179404     0.05200
C2444       C  0.91584775  0.37574113  0.09653756    -0.09500
C2445       C  0.90537960  0.39068602  0.07873703     0.00200
C2446       C  0.88397967  0.37077828  0.06576003     0.00000
C2447       C  0.87559191  0.33520683  0.07012802    -0.13000
C2448       C  0.88557082  0.32042214  0.08811001     0.00500
C2449       C  0.91428994  0.42747326  0.07478145     0.39800
C2450       C  0.87389931  0.28472808  0.09278746     0.36400
C2451       C  0.84303099  0.33497999  0.12753995     0.36200
C2452       C  0.98222678  0.31686833  0.15827109     0.36900
N2453       N  0.92122008  0.45700780  0.07162482    -0.43900
N2454       N  0.86419247  0.25626912  0.09660371    -0.44300
N2455       N  0.51069911  0.31331390  0.16426624    -0.41700
N2456       N  0.81482908  0.34030007  0.12156043    -0.43100
H2457       H  0.85960096  0.32117050  0.16431597     0.13000
H2458       H  0.96532046  0.32891633  0.12121767     0.09500
H2459       H  0.93049339  0.39190533  0.10700604     0.10600
H2460       H  0.85897491  0.31999566  0.06015172     0.16400
C2461       C  0.91965065  0.28409715  0.40379537    -0.01800
C2462       C  0.95484299  0.27866164  0.41010928     0.06800
C2463       C  0.98254500  0.28188784  0.39657012    -0.07800
C2464       C  0.97590492  0.29052667  0.37704648     0.04200
C2465       C  0.94067823  0.29577223  0.37057566    -0.15000
C2466       C  0.91277990  0.29224012  0.38406618    -0.08300
C2467       C  0.96401003  0.26730198  0.43032477     0.05200
C2468       C  0.95223727  0.23388913  0.43697585    -0.09500
C2469       C  0.46667187  0.21867874  0.45391778     0.00200
C2470       C  0.49390304  0.23667131  0.46414396     0.00000
C2471       C  0.00375797  0.27113946  0.45834229    -0.13000
C2472       C  0.98872612  0.28671430  0.44170428     0.00500
C2473       C  0.45500559  0.18360464  0.45983094     0.39800
C2474       C  0.99961623  0.32230543  0.43627413     0.36400
C2475       C  0.89047193  0.28231270  0.41740686     0.36200
C2476       C  0.00577722  0.29197133  0.36382820     0.36900
N2477       N  0.44591759  0.15541243  0.46457499    -0.43900
N2478       N  0.00815818  0.35088543  0.43192844    -0.44300
N2479       N  0.02983495  0.29308718  0.35333747    -0.41700
N2480       N  0.86725131  0.28099400  0.42844506    -0.43100
H2481       H  0.88569208  0.29622384  0.37923334     0.13000
H2482       H  0.00958870  0.27690672  0.40123491     0.09500
H2483       H  0.93324982  0.21880131  0.42833391     0.10600
H2484       H  0.02413665  0.28534504  0.46645040     0.16400
C2485       C  0.93286117  0.80335904  0.34980776     0.80400
N2486       N  0.90919145  0.78295866  0.33966701    -0.77900
C2487       C  0.90673864  0.78597815  0.31985053     0.82900
N2488       N  0.92827474  0.80899418  0.31023131    -0.77800
C2489       C  0.95084823  0.83036463  0.32032832     0.83000
N2490       N  0.95326648  0.82733732  0.34005933    -0.79500
C2491       C  0.91968784  0.81535169  0.18457167     0.80400
N2492       N  0.94432889  0.83418845  0.19481858    -0.77900
C2493       C  0.94795580  0.82934867  0.21440095     0.82900
N2494       N  0.92709626  0.80536864  0.22374668    -0.77800
C2495       C  0.90178613  0.78718164  0.21370565     0.83000
N2496       N  0.89799647  0.79230260  0.19414108    -0.79500
C2497       C  0.69984833  0.82959318  0.34754060     0.80400
N2498       N  0.67505235  0.84771511  0.33724776    -0.77900
C2499       C  0.66744417  0.83868820  0.31849776     0.82900
N2500       N  0.68500860  0.81120381  0.30976236    -0.77800
C2501       C  0.71074430  0.79342785  0.31974031     0.83000
N2502       N  0.71798704  0.80260259  0.33865016    -0.79500
C2503       C  0.92928101  0.55450635  0.18353716     0.80400
N2504       N  0.90559428  0.57507070  0.19349514    -0.77900
C2505       C  0.90253250  0.57223862  0.21326701     0.82900
N2506       N  0.92360754  0.54898799  0.22312993    -0.77800
C2507       C  0.94613472  0.52715645  0.21317594     0.83000
N2508       N  0.94904929  0.53019784  0.19344723    -0.79500
C2509       C  0.97565323  0.85317969  0.30974548     0.42700
N2510       N  0.51730095  0.86723970  0.29000667     0.01600
C2511       C  0.61797514  0.52130641  0.28886702    -0.06300
H2512       H  0.48205289  0.54074162  0.27992388     0.07000
C2513       C  0.48855404  0.97182445  0.21676028    -0.06700
Co2514     Co  0.55509587  0.93362271  0.30247432     0.74200
N2515       N  0.51510894  0.99532190  0.28649700    -0.25900
Co2516     Co  0.55310278  0.99486458  0.26464160     0.74100
C2517       C  0.47082637  0.50407190  0.22386522     0.42800
N2518       N  0.51668447  0.88586180  0.23191730     0.01200
N2519       N  0.51382192  0.99119549  0.24320380     0.01300
N2520       N  0.61738156  0.98171761  0.31396045    -0.46700
H2521       H  0.48697761  0.90164057  0.32970733     0.07000
N2522       N  0.51572173  0.97237501  0.30111748     0.01600
N2523       N  0.59141098  0.99305614  0.24286565     0.01300
C2524       C  0.63382196  0.00665802  0.22364177     0.42900
N2525       N  0.51720803  0.86285933  0.24652411    -0.25300
C2526       C  0.62149691  0.89029062  0.31525708    -0.06200
N2527       N  0.49266534  0.84284250  0.29331325    -0.46400
N2528       N  0.61632376  0.51729026  0.23978524    -0.46600
C2529       C  0.63921309  0.85800404  0.30835147     0.42700
N2530       N  0.59265220  0.97422097  0.30079263     0.01500
N2531       N  0.59446631  0.86521450  0.24664329    -0.25300
N2532       N  0.51758460  0.89284925  0.30337152    -0.25800
N2533       N  0.59382913  0.88813133  0.23200858     0.01200
H2534       H  0.62943452  0.82170588  0.25401051     0.07100
H2535       H  0.62345704  0.95773594  0.20384699     0.07100
N2536       N  0.59212398  0.99718750  0.28617989    -0.25900
N2537       N  0.51454298  0.96569414  0.22977853    -0.25500
N2538       N  0.59492459  0.86870511  0.28975797     0.01600
C2539       C  0.47250073  0.50715550  0.30752729     0.42900
C2540       C  0.49149813  0.83868041  0.24371304    -0.06700
N2541       N  0.59149791  0.96732454  0.22958890    -0.25500
H2542       H  0.48336725  0.95626646  0.20367150     0.07100
N2543       N  0.49079323  0.97879607  0.31432787    -0.46700
H2544       H  0.48622029  0.81581759  0.25289583     0.07100
C2545       C  0.63938675  0.85571207  0.22662126     0.42800
C2546       C  0.49236328  0.88601279  0.31667421    -0.06200
Co2547     Co  0.55588239  0.86520227  0.26824783     0.73800
N2548       N  0.49208532  0.87827495  0.21868879    -0.46400
C2549       C  0.63469233  0.01070529  0.30725329     0.43000
N2550       N  0.62122259  0.84583151  0.29261144    -0.46400
Co2551     Co  0.55408116  0.92662412  0.23032868     0.73900
C2552       C  0.61738073  0.97374766  0.21664627    -0.06700
C2553       C  0.48840257  0.51824516  0.28917400    -0.06300
N2554       N  0.59450471  0.89485222  0.30279034    -0.25800
N2555       N  0.48822011  0.51474286  0.24012309    -0.46600
H2556       H  0.62319829  0.54421322  0.27970805     0.07100
C2557       C  0.62247346  0.84368385  0.24452616    -0.06700
Cl2558     Cl  0.55445665  0.93007720  0.26642268    -0.49700
C2559       C  0.97506157  0.84903773  0.22529635     0.42800
H2560       H  0.62749123  0.90706745  0.32777796     0.07000
N2561       N  0.62000857  0.88293313  0.21939394    -0.46400
C2562       C  0.68958691  0.81663363  0.18562661     0.80400
N2563       N  0.66832112  0.83875030  0.19616322    -0.77900
C2564       C  0.66678483  0.83641906  0.21589509     0.82900
N2565       N  0.68687801  0.81198928  0.22528563    -0.77800
C2566       C  0.70942906  0.79076327  0.21511006     0.83000
N2567       N  0.71053702  0.79273845  0.19521669    -0.79500
C2568       C  0.91389579  0.53886669  0.34722900     0.80400
N2569       N  0.93871824  0.51970140  0.33731883    -0.77900
C2570       C  0.44469026  0.52610908  0.31808338     0.82900
N2571       N  0.92599198  0.55175415  0.30875981    -0.77800
C2572       C  0.90067547  0.57043796  0.31838581     0.83000
N2573       N  0.89458322  0.56400285  0.33762634    -0.79500
C2574       C  0.68382524  0.54971771  0.34901897     0.80400
N2575       N  0.70655821  0.57194872  0.33956967    -0.77900
C2576       C  0.70617071  0.57419481  0.31973764     0.82900
N2577       N  0.68265548  0.55446335  0.30923790    -0.77800
C2578       C  0.66079478  0.53124536  0.31845889     0.83000
N2579       N  0.66140186  0.52900961  0.33828663    -0.79500
C2580       C  0.69114748  0.54336084  0.18489517     0.80400
N2581       N  0.66708668  0.52284725  0.19440540    -0.77900
C2582       C  0.66093701  0.52783282  0.21377518     0.82900
N2583       N  0.67914436  0.55327856  0.22380525    -0.77800
C2584       C  0.70414178  0.57311026  0.21458191     0.83000
N2585       N  0.71003031  0.56819722  0.19511388    -0.79500
C2586       C  0.73025361  0.76404101  0.31024362     0.42700
N2587       N  0.74318953  0.72108535  0.29060785     0.01600
C2588       C  0.89267333  0.61498983  0.28977906    -0.06300
H2589       H  0.91719933  0.75026585  0.28062403     0.07000
C2590       C  0.84782231  0.74349120  0.21686637    -0.06700
Co2591     Co  0.80779729  0.68126720  0.30326655     0.74200
N2592       N  0.87041091  0.71928845  0.28693514    -0.25900
Co2593     Co  0.86883867  0.67986671  0.26525511     0.74100
C2594       C  0.88024486  0.76055487  0.22379390     0.42800
N2595       N  0.76268532  0.71903851  0.23213170     0.01200
N2596       N  0.86668435  0.71836186  0.24339379     0.01300
N2597       N  0.85340906  0.61684028  0.31491043    -0.46700
H2598       H  0.77842013  0.75220476  0.32993084     0.07000
N2599       N  0.84784879  0.71953509  0.30172568     0.01600
N2600       N  0.86608644  0.64004506  0.24370185     0.01300
C2601       C  0.87970781  0.59722793  0.22409983     0.42900
N2602       N  0.74010246  0.72008996  0.24690229    -0.25300
C2603       C  0.76085094  0.61723996  0.31694666    -0.06200
N2604       N  0.71963765  0.74671937  0.29386299    -0.46400
N2605       N  0.89001564  0.61479430  0.24045094    -0.46600
C2606       C  0.72840365  0.60041769  0.30979936     0.42700
N2607       N  0.84680108  0.64195577  0.30177321     0.01500
N2608       N  0.73832304  0.64234534  0.24703894    -0.25300
N2609       N  0.76860793  0.72054394  0.30391465    -0.25800
N2610       N  0.76133492  0.64148956  0.23247191     0.01200
H2611       H  0.69095979  0.61199901  0.25313061     0.07100
H2612       H  0.83201460  0.60907905  0.20407091     0.07100
N2613       N  0.86963271  0.64161430  0.28712025    -0.25900
N2614       N  0.84140240  0.71780648  0.23002688    -0.25500
N2615       N  0.74242028  0.64287722  0.29048392     0.01600
C2616       C  0.88463874  0.76130922  0.30846374     0.42900
C2617       C  0.71764880  0.74721730  0.24418370    -0.06700
N2618       N  0.84075819  0.64031946  0.23034818    -0.25500
H2619       H  0.83220026  0.74892858  0.20392557     0.07100
N2620       N  0.85588873  0.74382518  0.31522852    -0.46700
H2621       H  0.69544770  0.75395952  0.25351011     0.07100
C2622       C  0.72412330  0.60016001  0.22558362     0.42800
C2623       C  0.76260736  0.74667629  0.31704174    -0.06200
Co2624     Co  0.74036793  0.68164768  0.26879474     0.73800
N2625       N  0.75634544  0.74394768  0.21882789    -0.46400
C2626       C  0.88180262  0.59873973  0.30809902     0.43000
N2627       N  0.71836322  0.61780223  0.29348843    -0.46400
Co2628     Co  0.80147795  0.67956979  0.23083177     0.73900
C2629       C  0.84732175  0.61440695  0.21716853    -0.06700
C2630       C  0.89437546  0.74517062  0.28977602    -0.06300
N2631       N  0.76765526  0.64305035  0.30389625    -0.25800
N2632       N  0.89057993  0.74353006  0.24018397    -0.46600
H2633       H  0.91505428  0.60882208  0.28046511     0.07100
C2634       C  0.71395676  0.61683046  0.24406889    -0.06700
Cl2635     Cl  0.80461720  0.68058412  0.26704305    -0.49700
C2636       C  0.72852216  0.76285845  0.22566036     0.42800
H2637       H  0.77624127  0.61153877  0.32993793     0.07000
N2638       N  0.75353436  0.61688629  0.21911530    -0.46400
N2639       N  0.80094598  0.94653534  0.54959786    -0.36400
N2640       N  0.83857914  0.98869563  0.52043647    -0.57000
N2641       N  0.79270543  0.95650321  0.49106323    -0.36400
N2642       N  0.75224058  0.91805310  0.51983645    -0.57000
C2643       C  0.82067428  0.96841207  0.56114879     0.27200
C2644       C  0.77510992  0.93221217  0.56089903     0.27200
C2645       C  0.80853112  0.98282084  0.48091146     0.27200
C2646       C  0.76435793  0.94580556  0.48052263     0.27200
C2647       C  0.86103479  0.99291233  0.53565857     0.35800
C2648       C  0.85687770  0.99727389  0.50412674     0.35800
C2649       C  0.74328008  0.89719728  0.53508775     0.35800
C2650       C  0.74063071  0.90120053  0.50350567     0.35800
C2651       C  0.80724264  0.96787215  0.58005821    -0.21700
C2652       C  0.77876488  0.94494031  0.57993795    -0.21700
C2653       C  0.78972804  0.98938439  0.46381466    -0.21700
C2654       C  0.76176221  0.96587491  0.46355569    -0.21700
C2655       C  0.89358650  0.00512910  0.52905111    -0.22700
C2656       C  0.89098949  0.00770801  0.50896466    -0.22700
C2657       C  0.72492535  0.86734462  0.52846075    -0.22700
C2658       C  0.72359354  0.86972432  0.50833831    -0.22700
C2659       C  0.85183602  0.98701865  0.55544287    -0.18100
C2660       C  0.75019346  0.90582680  0.55488313    -0.18100
C2661       C  0.74434547  0.91497729  0.48446663    -0.18100
C2662       C  0.84249273  0.99643734  0.48508124    -0.18100
H2663       H  0.81723628  0.98209313  0.59275842     0.14800
H2664       H  0.76300742  0.93806434  0.59260297     0.14800
H2665       H  0.79654366  0.00790335  0.45227708     0.14800
H2666       H  0.74267096  0.96276084  0.45182263     0.14800
H2667       H  0.91681671  0.51102731  0.53781538     0.13100
H2668       H  0.91187251  0.51596212  0.49911518     0.13100
H2669       H  0.71385379  0.84599278  0.53716270     0.13100
H2670       H  0.71121356  0.85078051  0.49844612     0.13100
H2671       H  0.80626766  0.93985617  0.53515112     0.26400
H2672       H  0.80318116  0.94359944  0.50317853     0.26400
N2673       N  0.55734909  0.69972803  0.05061898    -0.36400
N2674       N  0.50835210  0.67224604  0.02109224    -0.57000
N2675       N  0.55420204  0.70365767  0.99141019    -0.36400
N2676       N  0.60010670  0.73487292  0.02059542    -0.57000
C2677       C  0.53056558  0.68777026  0.06206349     0.27200
C2678       C  0.57786407  0.72150557  0.06175836     0.27200
C2679       C  0.52557128  0.69402444  0.98079590     0.27200
C2680       C  0.57287365  0.72697671  0.98044790     0.27200
C2681       C  0.49590387  0.65430776  0.03675270     0.35800
C2682       C  0.49477540  0.65594970  0.00505603     0.35800
C2683       C  0.62095577  0.74138588  0.03622764     0.35800
C2684       C  0.61955458  0.74259201  0.00457968     0.35800
C2685       C  0.53443676  0.70181805  0.08079915    -0.21700
C2686       C  0.56395252  0.72332568  0.08054790    -0.21700
C2687       C  0.52586923  0.71145957  0.96292021    -0.21700
C2688       C  0.55576541  0.73223231  0.96267269    -0.21700
C2689       C  0.97318724  0.62729242  0.03064411    -0.22700
C2690       C  0.97271578  0.62817168  0.01048882    -0.22700
C2691       C  0.65375985  0.75388203  0.03014313    -0.22700
C2692       C  0.65286482  0.75459351  0.00999483    -0.22700
C2693       C  0.50429997  0.66253541  0.05645784    -0.18100
C2694       C  0.60997626  0.73811259  0.05588162    -0.18100
C2695       C  0.60649485  0.74100938  0.98528749    -0.18100
C2696       C  0.50184585  0.66640333  0.98564707    -0.18100
H2697       H  0.51801928  0.69693718  0.09348504     0.14800
H2698       H  0.57434346  0.73810957  0.09295332     0.14800
H2699       H  0.50706888  0.70853362  0.95102761     0.14800
H2700       H  0.56433126  0.74851066  0.95050674     0.14800
H2701       H  0.95867829  0.60872892  0.03972660     0.13100
H2702       H  0.95778863  0.61054399  0.00095196     0.13100
H2703       H  0.67589418  0.76185815  0.03926397     0.13100
H2704       H  0.67402204  0.76337153  0.00045849     0.13100
H2705       H  0.56264945  0.69158301  0.03641054     0.26400
H2706       H  0.56222900  0.69221768  0.00447946     0.26400
N2707       N  0.56688326  0.67979923  0.48515814    -0.36400
N2708       N  0.52177954  0.71204277  0.51540363    -0.57000
N2709       N  0.56633207  0.67911688  0.54499552    -0.36400
N2710       N  0.60863377  0.64306875  0.51498037    -0.57000
C2711       C  0.54018960  0.69274065  0.47397516     0.27200
C2712       C  0.58587756  0.65687975  0.47390272     0.27200
C2713       C  0.54069704  0.69312944  0.55655124     0.27200
C2714       C  0.58579443  0.65678122  0.55617196     0.27200
C2715       C  0.50750401  0.72801257  0.49955658     0.35800
C2716       C  0.50793766  0.72845738  0.53134031     0.35800
C2717       C  0.62808362  0.63402547  0.49915713     0.35800
C2718       C  0.62795436  0.63391800  0.53081216     0.35800
C2719       C  0.54290132  0.67844788  0.45521908    -0.21700
C2720       C  0.57130343  0.65559818  0.45525162    -0.21700
C2721       C  0.54436096  0.67975069  0.57539985    -0.21700
C2722       C  0.57241399  0.65665439  0.57509581    -0.21700
C2723       C  0.98372467  0.75417689  0.50546808    -0.22700
C2724       C  0.98407229  0.75450086  0.52561067    -0.22700
C2725       C  0.65976424  0.61853665  0.50495171    -0.22700
C2726       C  0.65965185  0.61844168  0.52507877    -0.22700
C2727       C  0.51434311  0.71823940  0.47986094    -0.18100
C2728       C  0.61692943  0.63815706  0.47957408    -0.18100
C2729       C  0.61685886  0.63838026  0.55035247    -0.18100
C2730       C  0.51546072  0.71927173  0.55098195    -0.18100
H2731       H  0.52632216  0.68383495  0.44265134     0.14800
H2732       H  0.58034637  0.64005972  0.44280980     0.14800
H2733       H  0.52902956  0.68617635  0.58830590     0.14800
H2734       H  0.58231893  0.64210497  0.58761695     0.14800
H2735       H  0.96757611  0.77110336  0.49626145     0.13100
H2736       H  0.96828603  0.77167401  0.53495197     0.13100
H2737       H  0.68073008  0.60836214  0.49566147     0.13100
H2738       H  0.68046035  0.60818298  0.53441315     0.13100
H2739       H  0.57289891  0.68760183  0.49929993     0.26400
H2740       H  0.57173622  0.68615164  0.53072512     0.26400
N2741       N  0.82110973  0.93870861  0.98505864    -0.36400
N2742       N  0.85992673  0.89871578  0.01462053    -0.57000
N2743       N  0.81756324  0.93367607  0.04458235    -0.36400
N2744       N  0.77550258  0.97007587  0.01513526    -0.57000
C2745       C  0.83958792  0.91552028  0.97370545     0.27200
C2746       C  0.79476050  0.95244496  0.97390677     0.27200
C2747       C  0.83289712  0.90713684  0.05493618     0.27200
C2748       C  0.78998495  0.94585113  0.05531270     0.27200
C2749       C  0.88068916  0.89146763  0.99904529     0.35800
C2750       C  0.87796368  0.88790857  0.03059598     0.35800
C2751       C  0.76403556  0.98880662  0.99952682     0.35800
C2752       C  0.76336784  0.98731403  0.03121610     0.35800
C2753       C  0.82491361  0.91471394  0.95506142    -0.21700
C2754       C  0.79687033  0.93813473  0.95514839    -0.21700
C2755       C  0.81482235  0.90244718  0.07244221    -0.21700
C2756       C  0.78774618  0.92691173  0.07267932    -0.21700
C2757       C  0.91205141  0.87567055  0.00513809    -0.22700
C2758       C  0.91024308  0.87329456  0.02521009    -0.22700
C2759       C  0.74413820  0.51767087  0.00573431    -0.22700
C2760       C  0.74405393  0.51695444  0.02587583    -0.22700
C2761       C  0.87029665  0.89624888  0.97937246    -0.18100
C2762       C  0.77034825  0.97924418  0.97979728    -0.18100
C2763       C  0.76845764  0.97540355  0.05057514    -0.18100
C2764       C  0.86440522  0.88903080  0.04977441    -0.18100
H2765       H  0.83363595  0.89907913  0.94258345     0.14800
H2766       H  0.78014134  0.94404105  0.94270216     0.14800
H2767       H  0.82085347  0.88376427  0.08402612     0.14800
H2768       H  0.76881097  0.93066058  0.08442166     0.14800
H2769       H  0.93363908  0.86625686  0.99604668     0.13100
H2770       H  0.93012102  0.86176134  0.03471062     0.13100
H2771       H  0.73076892  0.53716320  0.99670055     0.13100
H2772       H  0.73056616  0.53565452  0.03544000     0.13100
H2773       H  0.82742497  0.94633198  0.99924910     0.26400
H2774       H  0.82700153  0.94479465  0.03170384     0.26400
C2775       C  0.95181936  0.80886000  0.85026034     0.80400
N2776       N  0.97243754  0.83239979  0.84025726    -0.77900
C2777       C  0.97030212  0.83437532  0.82039939     0.82900
N2778       N  0.94688821  0.81341514  0.81056029    -0.77800
C2779       C  0.92687572  0.78935227  0.82034475     0.83000
N2780       N  0.92932771  0.78725856  0.84010731    -0.79500
C2781       C  0.95523819  0.58720160  0.84877337     0.80400
N2782       N  0.97485482  0.56165684  0.83954184    -0.77900
C2783       C  0.96929963  0.55454089  0.82024300     0.82900
N2784       N  0.94407814  0.57273157  0.81029012    -0.77800
C2785       C  0.92504812  0.59860275  0.81931729     0.83000
N2786       N  0.93066297  0.60582639  0.83850257    -0.79500
C2787       C  0.69173451  0.57425593  0.85129674     0.80400
N2788       N  0.71228809  0.59640658  0.84040272    -0.77900
C2789       C  0.70981271  0.59633223  0.82058530     0.82900
N2790       N  0.68691295  0.57366866  0.81157619    -0.77800
C2791       C  0.66517403  0.55252041  0.82231534     0.83000
N2792       N  0.66778707  0.55263364  0.84218614    -0.79500
C2793       C  0.67259579  0.79832010  0.84871072     0.80400
N2794       N  0.69894271  0.78130979  0.83898749    -0.77900
C2795       C  0.70657039  0.78984168  0.82019150     0.82900
N2796       N  0.68808165  0.81618486  0.81110655    -0.77800
C2797       C  0.66130842  0.83315285  0.82073683     0.83000
N2798       N  0.65359307  0.82407800  0.83951403    -0.79500
C2799       C  0.67775849  0.58097657  0.68670012     0.80400
N2800       N  0.65818295  0.55731288  0.69716366    -0.77900
C2801       C  0.66406191  0.55342327  0.71667715     0.82900
N2802       N  0.68935996  0.57338067  0.72568245    -0.77800
C2803       C  0.70803344  0.59789033  0.71537360     0.83000
N2804       N  0.70231397  0.60150593  0.69591055    -0.79500
C2805       C  0.94293294  0.56897381  0.68531632     0.80400
N2806       N  0.92180685  0.59246758  0.69509621    -0.77900
C2807       C  0.92327593  0.59510595  0.71491780     0.82900
N2808       N  0.94553508  0.57356069  0.72512555    -0.77800
C2809       C  0.96761738  0.55089493  0.71545068     0.83000
N2810       N  0.96603056  0.54848605  0.69561260    -0.79500
C2811       C  0.89974352  0.76870162  0.80999762     0.42700
N2812       N  0.85601961  0.75724864  0.79100529     0.01600
C2813       C  0.75092841  0.60618780  0.79046378    -0.06300
H2814       H  0.88673587  0.58297354  0.78120671     0.07000
C2815       C  0.88123530  0.65073543  0.71808996    -0.06700
Co2816     Co  0.81638271  0.69229494  0.80363858     0.74200
N2817       N  0.85448188  0.62911539  0.78771897    -0.25900
Co2818     Co  0.81624337  0.63029080  0.76596681     0.74100
C2819       C  0.89809831  0.61821504  0.72530072     0.42800
N2820       N  0.85557336  0.73762935  0.73300694     0.01200
N2821       N  0.85539879  0.63237415  0.74446789     0.01300
N2822       N  0.75306089  0.64589080  0.81558062    -0.46700
H2823       H  0.88731924  0.72059696  0.82970310     0.07000
N2824       N  0.85453454  0.65247266  0.80225132     0.01600
N2825       N  0.77790144  0.63273282  0.74427204     0.01300
C2826       C  0.73542741  0.61912800  0.72501250     0.42900
N2827       N  0.85553218  0.76100467  0.74756259    -0.25300
C2828       C  0.75203292  0.73791483  0.81690046    -0.06200
N2829       N  0.88224472  0.78019035  0.79396845    -0.46400
N2830       N  0.75259291  0.60887170  0.74131731    -0.46600
C2831       C  0.73503488  0.77052752  0.81016213     0.42700
N2832       N  0.77755029  0.65278872  0.80221151     0.01500
N2833       N  0.77841323  0.76086321  0.74762425    -0.25300
N2834       N  0.85524940  0.73163142  0.80422080    -0.25800
N2835       N  0.77850656  0.73773080  0.73294261     0.01200
H2836       H  0.74574392  0.80654298  0.75439382     0.07100
H2837       H  0.74690839  0.66703243  0.70488881     0.07100
N2838       N  0.77729877  0.62956582  0.78759848    -0.25900
N2839       N  0.85534078  0.65765477  0.73104179    -0.25500
N2840       N  0.77819618  0.75814298  0.79104792     0.01600
C2841       C  0.89731778  0.61725335  0.80864273     0.42900
C2842       C  0.88164392  0.78463844  0.74471443    -0.06700
N2843       N  0.77841364  0.65800611  0.73085459    -0.25500
H2844       H  0.88695070  0.66604636  0.70506696     0.07100
N2845       N  0.87961829  0.64609721  0.81533289    -0.46700
H2846       H  0.88735152  0.80760168  0.75386778     0.07100
C2847       C  0.73526502  0.77273199  0.72678198     0.42800
C2848       C  0.88172015  0.73684035  0.81700709    -0.06200
Co2849     Co  0.81705495  0.76012367  0.76934815     0.73800
N2850       N  0.88037210  0.74440166  0.71979888    -0.46400
C2851       C  0.73489685  0.61721288  0.80893799     0.43000
N2852       N  0.75262941  0.78181905  0.79414143    -0.46400
Co2853     Co  0.81698616  0.69783284  0.73147354     0.73900
C2854       C  0.75252000  0.65150063  0.71784991    -0.06700
C2855       C  0.88082951  0.60578202  0.79042972    -0.06300
N2856       N  0.77831904  0.73228701  0.80412601    -0.25800
N2857       N  0.88046462  0.60819026  0.74153389    -0.46600
H2858       H  0.74518552  0.58312695  0.78139244     0.07100
C2859       C  0.75173034  0.78387063  0.74508472    -0.06700
Cl2860     Cl  0.81665574  0.69515183  0.76759439    -0.49700
C2861       C  0.89793210  0.77351429  0.72636783     0.42800
H2862       H  0.74603330  0.72154770  0.82949020     0.07000
N2863       N  0.75341428  0.74431557  0.71984365    -0.46400
C2864       C  0.95680001  0.80260676  0.68623966     0.80400
N2865       N  0.93164993  0.78464643  0.69646786    -0.77900
C2866       C  0.92566722  0.79237917  0.71560164     0.82900
N2867       N  0.94484398  0.81833661  0.72460731    -0.77800
C2868       C  0.97066961  0.83586714  0.71472274     0.83000
N2869       N  0.97673407  0.82789347  0.69553181    -0.79500
C2870       C  0.68670414  0.81522360  0.68608718     0.80400
N2871       N  0.66449189  0.83731176  0.69615311    -0.77900
C2872       C  0.66467585  0.83740554  0.71607093     0.82900
N2873       N  0.68734011  0.81585234  0.72584254    -0.77800
C2874       C  0.70868113  0.79300846  0.71597039     0.83000
N2875       N  0.70849820  0.79284678  0.69610985    -0.79500
C2876       C  0.64149856  0.86204592  0.81124394     0.42700
N2877       N  0.62882371  0.90565554  0.79229715     0.01600
C2878       C  0.97793170  0.50925759  0.79184439    -0.06300
H2879       H  0.95665817  0.87196251  0.78201521     0.07000
C2880       C  0.52369763  0.88104071  0.71825339    -0.06700
Co2881     Co  0.56382681  0.94460927  0.80522316     0.74200
N2882       N  0.50181719  0.90515123  0.78879501    -0.25900
Co2883     Co  0.00235109  0.94432806  0.76721697     0.74100
C2884       C  0.99111415  0.86389223  0.72476433     0.42800
N2885       N  0.60896639  0.90657342  0.73402919     0.01200
N2886       N  0.50465487  0.90560602  0.74505731     0.01300
N2887       N  0.51732610  0.50858827  0.81694956    -0.46700
H2888       H  0.59329205  0.87327722  0.83102088     0.07000
N2889       N  0.52453342  0.90552944  0.80353529     0.01600
N2890       N  0.00439526  0.98392255  0.74579932     0.01300
C2891       C  0.99051928  0.52642095  0.72636900     0.42900
N2892       N  0.63181099  0.90626895  0.74870089    -0.25300
C2893       C  0.61040452  0.50911165  0.81934702    -0.06200
N2894       N  0.65228839  0.87984986  0.79516852    -0.46400
N2895       N  0.98027652  0.50889555  0.74264070    -0.46600
C2896       C  0.64266921  0.52629915  0.81226412     0.42700
N2897       N  0.52417276  0.98327410  0.80385014     0.01500
N2898       N  0.63190168  0.98406183  0.74906166    -0.25300
N2899       N  0.60342628  0.90587941  0.80559303    -0.25800
N2900       N  0.60878439  0.98410489  0.73452600     0.01200
H2901       H  0.67833392  0.51587198  0.75525347     0.07100
H2902       H  0.53832426  0.51495964  0.70635157     0.07100
N2903       N  0.00125157  0.98292183  0.78921168    -0.25900
N2904       N  0.53003770  0.90641245  0.73177100    -0.25500
N2905       N  0.62855752  0.98399447  0.79257502     0.01600
C2906       C  0.48988081  0.86182358  0.80970080     0.42900
C2907       C  0.65505573  0.87983660  0.74574328    -0.06700
N2908       N  0.52969631  0.98380354  0.73245646    -0.25500
H2909       H  0.53934597  0.87603618  0.70525540     0.07100
N2910       N  0.51797226  0.88030238  0.81661922    -0.46700
H2911       H  0.67772604  0.87393289  0.75487859     0.07100
C2912       C  0.64453080  0.52656501  0.72783052     0.42800
C2913       C  0.60927183  0.87931576  0.81830514    -0.06200
Co2914     Co  0.63094917  0.94498463  0.77069815     0.73800
N2915       N  0.61593003  0.88194211  0.72055025    -0.46400
C2916       C  0.98860143  0.52608798  0.81013737     0.43000
N2917       N  0.65253910  0.50909993  0.79575631    -0.46400
Co2918     Co  0.56945800  0.94524964  0.73282098     0.73900
C2919       C  0.52302242  0.50954097  0.71940099    -0.06700
C2920       C  0.97904461  0.87816072  0.79133667    -0.06300
N2921       N  0.60348922  0.98348338  0.80605736    -0.25800
N2922       N  0.98072261  0.88053072  0.74139772    -0.46600
H2923       H  0.95546973  0.51494567  0.78251383     0.07100
C2924       C  0.65545240  0.51023997  0.74619643    -0.06700
Cl2925     Cl  0.56664068  0.94478761  0.76900483    -0.49700
C2926       C  0.64438021  0.86385401  0.72717228     0.42800
H2927       H  0.59521564  0.51447779  0.83246930     0.07000
N2928       N  0.61569980  0.50883188  0.72130401    -0.46400
C2929       C  0.67997299  0.55542297  0.90547684    -0.01800
C2930       C  0.71533579  0.54942295  0.91146580     0.06800
C2931       C  0.74269990  0.55394645  0.89779812    -0.07800
C2932       C  0.73558748  0.56373368  0.87848778     0.04200
C2933       C  0.70016667  0.56858639  0.87225752    -0.15000
C2934       C  0.67264843  0.56453378  0.88593218    -0.08300
C2935       C  0.72482150  0.53526445  0.93117765     0.05200
C2936       C  0.70932926  0.00360301  0.93756480    -0.09500
C2937       C  0.72222641  0.98592608  0.95416112     0.00200
C2938       C  0.75194966  0.99967616  0.96418229     0.00000
C2939       C  0.76601900  0.53250377  0.95861654    -0.13000
C2940       C  0.75229739  0.55076819  0.94247905     0.00500
C2941       C  0.70535135  0.95323464  0.96031209     0.39800
C2942       C  0.76719811  0.58516859  0.93768150     0.36400
C2943       C  0.65089337  0.55241893  0.91909646     0.36200
C2944       C  0.76517918  0.56596673  0.86511186     0.36900
N2945       N  0.69162198  0.92717367  0.96530679    -0.43900
N2946       N  0.77919589  0.61274597  0.93391106    -0.44300
N2947       N  0.78891675  0.56773080  0.85442835    -0.41700
N2948       N  0.62769687  0.54990094  0.93008559    -0.43100
H2949       H  0.64540174  0.56819307  0.88129167     0.13000
H2950       H  0.76985937  0.54845706  0.90204738     0.09500
H2951       H  0.68816303  0.99146420  0.92909163     0.10600
H2952       H  0.78823722  0.54368472  0.96666746     0.16400
C2953       C  0.92370823  0.88442755  0.93304528    -0.01800
C2954       C  0.92233032  0.84701890  0.93024416     0.06800
C2955       C  0.90725197  0.82555180  0.94485129    -0.07800
C2956       C  0.89126175  0.84097979  0.96133660     0.04200
C2957       C  0.89133984  0.87845959  0.96369086    -0.15000
C2958       C  0.90867124  0.89973177  0.94981892    -0.08300
C2959       C  0.93202087  0.83069932  0.91110185     0.05200
C2960       C  0.96650976  0.83484558  0.90377231    -0.09500
C2961       C  0.97454486  0.82594691  0.88428735     0.00200
C2962       C  0.94779215  0.81201234  0.87187707     0.00000
C2963       C  0.91418413  0.80492862  0.87990303    -0.13000
C2964       C  0.90601147  0.81447981  0.89917070     0.00500
C2965       C  0.01012888  0.83232092  0.87743329     0.39800
C2966       C  0.86987367  0.81007293  0.90574994     0.36400
C2967       C  0.93770342  0.90791245  0.91819873     0.36200
C2968       C  0.87279413  0.81810514  0.97491069     0.36900
N2969       N  0.53873932  0.83781923  0.87216190    -0.43900
N2970       N  0.84093581  0.80658556  0.91101563    -0.44300
N2971       N  0.85789400  0.79991370  0.98581906    -0.41700
N2972       N  0.94880241  0.92668324  0.90625274    -0.43100
H2973       H  0.90860526  0.92855174  0.95157747     0.13000
H2974       H  0.90612517  0.79682520  0.94277072     0.09500
H2975       H  0.98675119  0.84670169  0.91303899     0.10600
H2976       H  0.89320568  0.79422972  0.87072609     0.16400
C2977       C  0.64263321  0.57749356  0.59111546    -0.01800
C2978       C  0.65884865  0.60211535  0.60397116     0.06800
C2979       C  0.66838263  0.63605881  0.59719999    -0.07800
C2980       C  0.65863041  0.64694935  0.57841987     0.04200
C2981       C  0.63884778  0.62367382  0.56634822    -0.15000
C2982       C  0.63262627  0.58846145  0.57235344    -0.08300
C2983       C  0.66315433  0.59433429  0.62499407     0.05200
C2984       C  0.69730361  0.58959840  0.63250102    -0.09500
C2985       C  0.70254782  0.58436084  0.65254526     0.00200
C2986       C  0.67314511  0.58395895  0.66536900     0.00000
C2987       C  0.63887475  0.58785277  0.65775774    -0.13000
C2988       C  0.63368680  0.59347505  0.63772345     0.00500
C2989       C  0.73825170  0.57857350  0.65947125     0.39800
C2990       C  0.59813032  0.59990472  0.63070412     0.36400
C2991       C  0.63444328  0.54161255  0.59731481     0.36200
C2992       C  0.66639664  0.68305090  0.57238568     0.36900
N2993       N  0.76688809  0.57384335  0.66495246    -0.43900
N2994       N  0.56963248  0.60517729  0.62514745    -0.44300
N2995       N  0.67257393  0.71193231  0.56746246    -0.41700
N2996       N  0.62802120  0.51288603  0.60240233    -0.43100
H2997       H  0.61747182  0.57057136  0.56302145     0.13000
H2998       H  0.68145966  0.65476305  0.60701154     0.09500
H2999       H  0.71987526  0.59020107  0.62266986     0.10600
H3000       H  0.61626500  0.58778886  0.66756939     0.16400
C3001       C  0.00102574  0.78683571  0.59117305    -0.01800
C3002       C  0.97955027  0.76712938  0.60421033     0.06800
C3003       C  0.96349515  0.73546836  0.59741094    -0.07800
C3004       C  0.47144728  0.72165757  0.57881750     0.04200
C3005       C  0.49715961  0.73866522  0.56715406    -0.15000
C3006       C  0.01044669  0.77202335  0.57302225    -0.08300
C3007       C  0.97424456  0.77813034  0.62507161     0.05200
C3008       C  0.93964773  0.77986177  0.63253160    -0.09500
C3009       C  0.93335868  0.78760904  0.65232299     0.00200
C3010       C  0.96209794  0.79482676  0.66509093     0.00000
C3011       C  0.99669347  0.79356081  0.65760888    -0.13000
C3012       C  0.00303311  0.78433646  0.63798455     0.00500
C3013       C  0.89703884  0.78838020  0.65897211     0.39800
C3014       C  0.53930704  0.77887019  0.63194818     0.36400
C3015       C  0.01360215  0.82220984  0.59604706     0.36200
C3016       C  0.45526482  0.68852100  0.57259275     0.36900
N3017       N  0.86790530  0.78873222  0.66425721    -0.43900
N3018       N  0.56840348  0.77426824  0.62723202    -0.44300
N3019       N  0.44235836  0.66200202  0.56750249    -0.41700
N3020       N  0.02351229  0.85065617  0.59988720    -0.43100
H3021       H  0.02935568  0.78576657  0.56376393     0.13000
H3022       H  0.94592022  0.72065079  0.60695829     0.09500
H3023       H  0.91737615  0.77475079  0.62285663     0.10600
H3024       H  0.01896796  0.79820934  0.66735226     0.16400
C3025       C  0.69147979  0.78540609  0.90243913    -0.01800
C3026       C  0.65751101  0.77802536  0.90987250     0.06800
C3027       C  0.62839481  0.77659604  0.89707116    -0.07800
C3028       C  0.63276852  0.78264017  0.87699057     0.04200
C3029       C  0.66668439  0.79062228  0.86958814    -0.15000
C3030       C  0.69585603  0.79150113  0.88237890    -0.08300
C3031       C  0.65157969  0.77086686  0.93088875     0.05200
C3032       C  0.63435334  0.79680739  0.94230158    -0.09500
C3033       C  0.62294470  0.78885607  0.96128343     0.00200
C3034       C  0.62831715  0.75432006  0.96883449     0.00000
C3035       C  0.64800168  0.72932559  0.95800869    -0.13000
C3036       C  0.65978696  0.73739483  0.93911210     0.00500
C3037       C  0.60289835  0.81522040  0.97207626     0.39800
C3038       C  0.67800699  0.71017478  0.92793202     0.36400
C3039       C  0.72195617  0.78739972  0.91519740     0.36200
C3040       C  0.60266631  0.77845405  0.86410418     0.36900
N3041       N  0.58673874  0.83622925  0.98077396    -0.43900
N3042       N  0.69271498  0.68845063  0.91896648    -0.44300
N3043       N  0.57878469  0.77470091  0.85364392    -0.41700
N3044       N  0.74628471  0.78898522  0.92549754    -0.43100
H3045       H  0.72202342  0.79755152  0.87671977     0.13000
H3046       H  0.60233046  0.77021209  0.90277022     0.09500
H3047       H  0.62831459  0.82265477  0.93600859     0.10600
H3048       H  0.65189164  0.70265807  0.96377872     0.16400
C3049       C  0.50621760  0.61439921  0.93897124    -0.01800
C3050       C  0.97229020  0.62011265  0.93095013     0.06800
C3051       C  0.94604928  0.63681524  0.94239148    -0.07800
C3052       C  0.95404440  0.64992126  0.96116848     0.04200
C3053       C  0.98834276  0.64510578  0.96885803    -0.15000
C3054       C  0.51361711  0.62601166  0.95796169    -0.08300
C3055       C  0.96518217  0.61151559  0.91010832     0.05200
C3056       C  0.96853752  0.57602616  0.90365231    -0.09500
C3057       C  0.96597582  0.56736771  0.88373374     0.00200
C3058       C  0.95949713  0.59461297  0.86992207     0.00000
C3059       C  0.95530900  0.62997841  0.87650577    -0.13000
C3060       C  0.95840560  0.63866395  0.89635630     0.00500
C3061       C  0.96910387  0.53029211  0.87803900     0.39800
C3062       C  0.95618184  0.67581194  0.90208694     0.36400
C3063       C  0.53494009  0.60037728  0.92724682     0.36200
C3064       C  0.92780875  0.67062196  0.97158016     0.36900
N3065       N  0.97146617  0.00044960  0.87356863    -0.43900
N3066       N  0.95445477  0.70560294  0.90660791    -0.44300
N3067       N  0.90683636  0.68734348  0.97991500    -0.41700
N3068       N  0.55785715  0.58961232  0.91763655    -0.43100
H3069       H  0.54031670  0.62316820  0.96366962     0.13000
H3070       H  0.91996571  0.64135694  0.93620793     0.09500
H3071       H  0.97375794  0.55512381  0.91422637     0.10600
H3072       H  0.95035279  0.65111549  0.86603261     0.16400
C3073       C  0.90801487  0.98874681  0.60142381    -0.01800
C3074       C  0.90851645  0.52534922  0.60600546     0.06800
C3075       C  0.89519785  0.54982551  0.59233838    -0.07800
C3076       C  0.87867722  0.53804145  0.57509026     0.04200
C3077       C  0.87543618  0.00112684  0.57127919    -0.15000
C3078       C  0.89153971  0.97685878  0.58416625    -0.08300
C3079       C  0.91820431  0.53849422  0.62589327     0.05200
C3080       C  0.95353971  0.53735049  0.63231384    -0.09500
C3081       C  0.96268854  0.54858382  0.65134596     0.00200
C3082       C  0.93609794  0.56112532  0.66428499     0.00000
C3083       C  0.90097094  0.56308879  0.65752942    -0.13000
C3084       C  0.89187021  0.55173679  0.63865483     0.00500
C3085       C  0.99953026  0.54771921  0.65706828     0.39800
C3086       C  0.85495668  0.55236188  0.63301389     0.36400
C3087       C  0.92184794  0.96253853  0.61486294     0.36200
C3088       C  0.86349228  0.56433532  0.56216979     0.36900
N3089       N  0.52904487  0.54720897  0.66168772    -0.43900
N3090       N  0.82540647  0.55275283  0.62847464    -0.44300
N3091       N  0.85158178  0.58558120  0.55181437    -0.41700
N3092       N  0.93294274  0.94140886  0.62556344    -0.43100
H3093       H  0.88946595  0.94842410  0.58124467     0.13000
H3094       H  0.89599170  0.57817043  0.59570169     0.09500
H3095       H  0.97391698  0.52754015  0.62246948     0.10600
H3096       H  0.88012341  0.57211013  0.66730317     0.16400
C3097       C  0.66648959  0.83276479  0.63253402    -0.01800
C3098       C  0.70084393  0.83750823  0.62473219     0.06800
C3099       C  0.73024883  0.83292206  0.63706031    -0.07800
C3100       C  0.72614527  0.82407115  0.65676452     0.04200
C3101       C  0.69180161  0.82030240  0.66476854    -0.15000
C3102       C  0.66222549  0.82460375  0.65247431    -0.08300
C3103       C  0.70741123  0.85048357  0.60442923     0.05200
C3104       C  0.69220051  0.88295503  0.59844828    -0.09500
C3105       C  0.70368641  0.89996174  0.58134778     0.00200
C3106       C  0.73180993  0.88517242  0.57040993     0.00000
C3107       C  0.74517820  0.85157359  0.57550951    -0.13000
C3108       C  0.73275548  0.83386192  0.59214965     0.00500
C3109       C  0.68758462  0.93341350  0.57580874     0.39800
C3110       C  0.74710086  0.79907507  0.59661439     0.36400
C3111       C  0.63536633  0.83607478  0.62037649     0.36200
C3112       C  0.75776711  0.82150894  0.66864247     0.36900
N3113       N  0.67455871  0.96012843  0.57130278    -0.47500
N3114       N  0.75858451  0.77118900  0.60018107    -0.44300
N3115       N  0.78312056  0.81945028  0.67812405    -0.41700
N3116       N  0.61053244  0.83885215  0.61054472    -0.43100
H3117       H  0.63577825  0.82179136  0.65848699     0.13000
H3118       H  0.75671554  0.83753952  0.63141054     0.09500
H3119       H  0.67271767  0.89606381  0.60767133     0.10600
H3120       H  0.76622254  0.83974719  0.56681905     0.16400
C3121       C  0.70251421  0.49618033  0.13629102    -0.01800
C3122       C  0.71127921  0.52461483  0.12369113     0.06800
C3123       C  0.71094246  0.55972671  0.13098371    -0.07800
C3124       C  0.70372143  0.56664911  0.15077047     0.04200
C3125       C  0.69688190  0.53798207  0.16363681    -0.15000
C3126       C  0.69531399  0.50307274  0.15604529    -0.08300
C3127       C  0.72439763  0.51773129  0.10353150     0.05200
C3128       C  0.70195859  0.50176258  0.08958180    -0.09500
C3129       C  0.71489651  0.98988072  0.07148600     0.00200
C3130       C  0.75115734  0.99435288  0.06719374     0.00000
C3131       C  0.77346793  0.51243873  0.08068705    -0.13000
C3132       C  0.76019386  0.52406491  0.09872531     0.00500
C3133       C  0.69148644  0.97179947  0.05796748     0.39800
C3134       C  0.78431471  0.54012495  0.11265610     0.36400
C3135       C  0.70232991  0.95942579  0.12963274     0.36200
C3136       C  0.70245723  0.60338131  0.15730155     0.36900
N3137       N  0.67280603  0.95749726  0.04699829    -0.43900
N3138       N  0.80326154  0.55301753  0.12400029    -0.44300
N3139       N  0.70120678  0.63283315  0.16249763    -0.41700
N3140       N  0.70221627  0.93002070  0.12431092    -0.43100
H3141       H  0.68960764  0.48088916  0.16571761     0.13000
H3142       H  0.71709796  0.58168861  0.12124561     0.09500
H3143       H  0.67435910  0.49710903  0.09317943     0.10600
H3144       H  0.80145219  0.51560031  0.07749233     0.16400
C3145       C  0.65034400  0.56578098  0.44561096    -0.01800
C3146       C  0.66497948  0.58617205  0.43027189     0.06800
C3147       C  0.66814487  0.62335145  0.43256622    -0.07800
C3148       C  0.65506467  0.64049155  0.44928440     0.04200
C3149       C  0.63779556  0.62038629  0.46384545    -0.15000
C3150       C  0.63674907  0.58301375  0.46222568    -0.08300
C3151       C  0.67258986  0.57035389  0.41074185     0.05200
C3152       C  0.64458377  0.55451843  0.40036728    -0.09500
C3153       C  0.64813077  0.54528557  0.38059352     0.00200
C3154       C  0.68051139  0.55209163  0.37071956     0.00000
C3155       C  0.70925813  0.56578743  0.38158339    -0.13000
C3156       C  0.70550439  0.57498647  0.40138607     0.00500
C3157       C  0.61702882  0.53161336  0.37072645     0.39800
C3158       C  0.73535540  0.59023801  0.41169976     0.36400
C3159       C  0.64803427  0.52733739  0.44430858     0.36200
C3160       C  0.65789421  0.67889624  0.45076501     0.36900
N3161       N  0.59197545  0.52072339  0.36293108    -0.43900
N3162       N  0.75906070  0.60262260  0.42008827    -0.44300
N3163       N  0.66003268  0.70966866  0.45199453    -0.41700
N3164       N  0.64617574  0.49653547  0.44319267    -0.43100
H3165       H  0.62382327  0.56748246  0.47353679     0.13000
H3166       H  0.67920298  0.63925314  0.42081453     0.09500
H3167       H  0.61905803  0.55130151  0.40745812     0.10600
H3168       H  0.73442728  0.57065539  0.37441275     0.16400
C3169       C  0.86727046  0.53203209  0.39587106    -0.01800
C3170       C  0.89551372  0.52465024  0.40874443     0.06800
C3171       C  0.92990600  0.52106068  0.40137135    -0.07800
C3172       C  0.93664082  0.52535454  0.38136425     0.04200
C3173       C  0.90838471  0.53325676  0.36841559    -0.15000
C3174       C  0.87392926  0.53662460  0.37592055    -0.08300
C3175       C  0.88910482  0.51869613  0.42979405     0.05200
C3176       C  0.88807501  0.98360396  0.43665048    -0.09500
C3177       C  0.87629598  0.97631228  0.45557747     0.00200
C3178       C  0.86483734  0.00453955  0.46784349     0.00000
C3179       C  0.86878991  0.53973539  0.46161696    -0.13000
C3180       C  0.88097570  0.54711073  0.44266876     0.00500
C3181       C  0.87357099  0.93946516  0.46163253     0.39800
C3182       C  0.88391434  0.58378768  0.43643863     0.36400
C3183       C  0.83069049  0.03264084  0.40252236     0.36200
C3184       C  0.97292801  0.52290524  0.37478520     0.36900
N3185       N  0.87119139  0.90998594  0.46649641    -0.43900
N3186       N  0.88656764  0.61313071  0.43137999    -0.44300
N3187       N  0.00206144  0.52097090  0.36960050    -0.41700
N3188       N  0.80159711  0.03318749  0.40784463    -0.43100
H3189       H  0.85200347  0.54223136  0.36611606     0.13000
H3190       H  0.95152224  0.51506944  0.41131415     0.09500
H3191       H  0.89493762  0.96175623  0.42686121     0.10600
H3192       H  0.86019436  0.56138330  0.47109621     0.16400
C3193       C  0.70867150  0.79467371  0.13239604    -0.01800
C3194       C  0.67512072  0.79972000  0.12375261     0.06800
C3195       C  0.64742347  0.81360392  0.13506549    -0.07800
C3196       C  0.65188541  0.82065749  0.15498363     0.04200
C3197       C  0.68516721  0.81427206  0.16403584    -0.15000
C3198       C  0.71349422  0.80204403  0.15240264    -0.08300
C3199       C  0.66602612  0.78554646  0.10407377     0.05200
C3200       C  0.66729588  0.74842039  0.10117848    -0.09500
C3201       C  0.65092660  0.73264022  0.08493202     0.00200
C3202       C  0.63266144  0.75416019  0.07138442     0.00000
C3203       C  0.63347063  0.79144923  0.07350644    -0.13000
C3204       C  0.65007757  0.80727973  0.08970718     0.00500
C3205       C  0.65181789  0.69424473  0.08288064     0.39800
C3206       C  0.64941055  0.84570764  0.09169118     0.36400
C3207       C  0.73812259  0.78118204  0.12108650     0.36200
C3208       C  0.62062994  0.83102921  0.16585444     0.36900
N3209       N  0.65254350  0.66347047  0.08123361    -0.43900
N3210       N  0.64893536  0.87649821  0.09329967    -0.44300
N3211       N  0.59546547  0.83910025  0.17449491    -0.41700
N3212       N  0.76160749  0.77032053  0.11193493    -0.43100
H3213       H  0.73913893  0.79720724  0.15906109     0.13000
H3214       H  0.62135692  0.81669966  0.12855285     0.09500
H3215       H  0.67923282  0.73154046  0.11224424     0.10600
H3216       H  0.61980636  0.80804708  0.06293386     0.16400
C3217       C  0.91738460  0.58287719  0.13068541    -0.01800
C3218       C  0.95285333  0.58727670  0.12448362     0.06800
C3219       C  0.98032703  0.57875473  0.13752288    -0.07800
C3220       C  0.97318289  0.56661145  0.15645548     0.04200
C3221       C  0.93770106  0.56294891  0.16284350    -0.15000
C3222       C  0.91011801  0.57102329  0.14975685    -0.08300
C3223       C  0.96224919  0.60384941  0.10531564     0.05200
C3224       C  0.94830492  0.63763179  0.10066858    -0.09500
C3225       C  0.95987121  0.65622409  0.08409839     0.00200
C3226       C  0.98688613  0.64167254  0.07227220     0.00000
C3227       C  0.99980909  0.60740073  0.07636047    -0.13000
C3228       C  0.98749030  0.58826895  0.09256093     0.00500
C3229       C  0.44468966  0.69074268  0.07992327     0.39800
C3230       C  0.00151398  0.55290636  0.09585536     0.36400
C3231       C  0.88807825  0.59082165  0.11782024     0.36200
C3232       C  0.00290362  0.56098647  0.16945220     0.36900
N3233       N  0.43248516  0.71841009  0.07659411    -0.43900
N3234       N  0.01292721  0.52461988  0.09843053    -0.44300
N3235       N  0.02669486  0.55662404  0.17988394    -0.41700
N3236       N  0.86484362  0.59762195  0.10741239    -0.43100
H3237       H  0.88282701  0.56853777  0.15453923     0.13000
H3238       H  0.00763263  0.58309251  0.13318065     0.09500
H3239       H  0.92924806  0.65016350  0.11039206     0.10600
H3240       H  0.02022438  0.59593216  0.06708191     0.16400
C3241       C  0.75068479  0.86212610  0.43789389    -0.01800
C3242       C  0.71728408  0.86833365  0.42924583     0.06800
C3243       C  0.69080507  0.88573608  0.44021648    -0.07800
C3244       C  0.69801848  0.89878091  0.45911687     0.04200
C3245       C  0.73205804  0.89428036  0.46718539    -0.15000
C3246       C  0.75772867  0.87504022  0.45671017    -0.08300
C3247       C  0.71067369  0.85848298  0.40844530     0.05200
C3248       C  0.71435635  0.82266003  0.40264180    -0.09500
C3249       C  0.71221504  0.81267216  0.38288633     0.00200
C3250       C  0.70530313  0.83878940  0.36848882     0.00000
C3251       C  0.70082047  0.87457434  0.37440803    -0.13000
C3252       C  0.70372022  0.88462961  0.39412361     0.00500
C3253       C  0.71638684  0.77534400  0.37801280     0.39800
C3254       C  0.70063622  0.92205977  0.39916561     0.36400
C3255       C  0.77892926  0.84468715  0.42724780     0.36200
C3256       C  0.67092180  0.91818331  0.46959847     0.36900
N3257       N  0.71992053  0.74539106  0.37421586    -0.43900
N3258       N  0.69812833  0.95203975  0.40317275    -0.44300
N3259       N  0.64923630  0.93365518  0.47809656    -0.41700
N3260       N  0.80129921  0.83057461  0.41858817    -0.43100
H3261       H  0.78409161  0.87198609  0.46284088     0.13000
H3262       H  0.66492879  0.89015121  0.43374817     0.09500
H3263       H  0.71953599  0.80246398  0.41362657     0.10600
H3264       H  0.69546230  0.89492733  0.36353697     0.16400
C3265       C  0.87825688  0.82876045  0.13488839    -0.01800
C3266       C  0.90821384  0.83092688  0.12256366     0.06800
C3267       C  0.94215884  0.82711796  0.13065094    -0.07800
C3268       C  0.94657949  0.82156883  0.15079338     0.04200
C3269       C  0.91654807  0.81968899  0.16314234    -0.15000
C3270       C  0.88262209  0.82257473  0.15492358    -0.08300
C3271       C  0.90446169  0.84150465  0.10177575     0.05200
C3272       C  0.91591202  0.87575518  0.09646463    -0.09500
C3273       C  0.90542980  0.89070307  0.07866514     0.00200
C3274       C  0.88383574  0.87088138  0.06574763     0.00000
C3275       C  0.87531684  0.83535849  0.07015467    -0.13000
C3276       C  0.88533198  0.82056379  0.08812813     0.00500
C3277       C  0.91456150  0.92741144  0.07464922     0.39800
C3278       C  0.87356291  0.78491237  0.09282838     0.36400
C3279       C  0.84292385  0.83515556  0.12753165     0.36200
C3280       C  0.98210476  0.81724822  0.15831468     0.36900
N3281       N  0.92169100  0.95688160  0.07144853    -0.43900
N3282       N  0.86377304  0.75648563  0.09665192    -0.44300
N3283       N  0.51057497  0.81375368  0.16432606    -0.41700
N3284       N  0.81472273  0.84044804  0.12154384    -0.43100
H3285       H  0.85947452  0.82146611  0.16432063     0.13000
H3286       H  0.96522267  0.82912255  0.12124037     0.09500
H3287       H  0.93069701  0.89187506  0.10689334     0.10600
H3288       H  0.85858080  0.82019980  0.06021537     0.16400
C3289       C  0.91942926  0.78367729  0.40381685    -0.01800
C3290       C  0.95461439  0.77825856  0.41014764     0.06800
C3291       C  0.98234432  0.78160830  0.39663596    -0.07800
C3292       C  0.97574223  0.79035688  0.37712419     0.04200
C3293       C  0.94052705  0.79559962  0.37063477    -0.15000
C3294       C  0.91259707  0.79193779  0.38409729    -0.08300
C3295       C  0.96375168  0.76680055  0.43035034     0.05200
C3296       C  0.95196302  0.73335870  0.43695336    -0.09500
C3297       C  0.46634827  0.71808740  0.45389090     0.00200
C3298       C  0.49354892  0.73604499  0.46415748     0.00000
C3299       C  0.00343265  0.77052777  0.45839907    -0.13000
C3300       C  0.98844684  0.78616552  0.44176882     0.00500
C3301       C  0.45465154  0.68300481  0.45977060     0.39800
C3302       C  0.99936687  0.82177347  0.43638953     0.36400
C3303       C  0.89022024  0.78174080  0.41740309     0.36200
C3304       C  0.00564433  0.79189502  0.36393073     0.36900
N3305       N  0.44554450  0.65480904  0.46449708    -0.43900
N3306       N  0.00794222  0.85036511  0.43208658    -0.44300
N3307       N  0.02972224  0.79308210  0.35345691    -0.41700
N3308       N  0.86698431  0.78028989  0.42842637    -0.43100
H3309       H  0.88551491  0.79590067  0.37924980     0.13000
H3310       H  0.00938312  0.77663160  0.40131085     0.09500
H3311       H  0.93299459  0.71830380  0.42828157     0.10600
H3312       H  0.02379061  0.78470204  0.46653994     0.16400
loop_ 
_geom_bond_atom_site_label_1 
_geom_bond_atom_site_label_2 
_geom_bond_distance 
_geom_bond_site_symmetry_2 
_ccdc_geom_bond_type 
C1            N2   1.361       .  A
C1            N6   1.359       .  A
C1          C809   1.480       .  S
N2            C3   1.361       .  A
C3            N4   1.356       .  A
C3          C132   1.464       .  S
N4            C5   1.354       .  A
C5            N6   1.355       .  A
C5           C25   1.461       .  S
C7            N8   1.358       .  A
C7           N12   1.359       .  A
C7          C785   1.477       .  S
N8            C9   1.356       .  A
C9           N10   1.356       .  A
C9           C75   1.461       .  S
N10          C11   1.356       .  A
C11          N12   1.357       .  A
C11         C110   1.461       .  S
C13          N14   1.354       .  A
C13          N18   1.361       .  A
C13         C766   1.483       .  S
N14          C15   1.352       .  A
C15          N16   1.359       .  A
C15          C45   1.463       .  S
N16          C17   1.361       .  A
C17          N18   1.361       .  A
C17         C102   1.472       .  S
C19          N20   1.360       .  A
C19          N24   1.359       .  A
C19         C737   1.483       .  S
N20          C21   1.359       .  A
C21          N22   1.360       .  A
C21         C117   1.469       .  S
N22          C23   1.359       .  A
C23          N24   1.356       .  A
C23        C1689   1.467       .  S
C25        N1699   1.348       .  A
C25        C1718   1.458       .  S
N26          N43   1.323   1_455  A
N26          N48   1.320       .  A
N26         Co63   2.081       .  S
C27         N880   1.340   1_545  A
C27         C893   1.456       .  S
C27          H72   1.082       .  S
H28          C69   1.082       .  S
C29          N53   1.343   1_655  A
C29         C861   1.463       .  S
C29          H58   1.082       .  S
Co30         N48   2.082       .  S
Co30         N38   2.079       .  S
Co30         N70   2.079       .  S
Co30         N46   2.081       .  S
Co30        Cl74   2.463       .  S
N31         C897   1.335   1_455  A
N31          N38   1.320       .  A
N31         Co32   2.070       .  S
Co32         N35   2.086       .  S
Co32         N52   2.082       .  S
Co32         N39   2.075       .  S
Co32        Cl74   2.429       .  S
C33          N71   1.348       .  A
C33        C1679   1.467       .  S
C33         C857   1.463   1_545  S
N34          N41   1.320       .  A
N34          N64   1.324   1_455  A
N34         Co67   2.082       .  S
N35          N53   1.320       .  A
N35         N899   1.324   1_455  A
N36          C65   1.348       .  A
N36          N46   1.324       .  A
H37          C62   1.082       .  S
N38          N59   1.325   1_455  A
N39          N57   1.319       .  A
N39         N872   1.323       .  A
C40         N872   1.346       .  A
C40          C68   1.457       .  S
C40         C926   1.459       .  S
N41          C56   1.340   1_455  A
N41         Co63   2.081       .  S
C42          N70   1.338       .  A
C42          C45   1.458       .  S
C42          H76   1.082       .  S
N43        C1681   1.348       .  A
N44         C868   1.346       .  A
N44         N867   1.323   1_545  A
C45          N66   1.348       .  A
N46          N52   1.320       .  A
N47          C73   1.337       .  A
N47          N49   1.320       .  A
N47         Co63   2.073       .  S
N48          C62   1.341   1_455  A
N49          N77   1.325       .  A
N49         Co67   2.084       .  S
H50          C73   1.082       .  S
H51          C68   1.082       .  S
N52         C855   1.340       .  A
N53         Co67   2.090       .  S
N54          N66   1.326       .  A
N54          N70   1.319       .  A
N54         Co63   2.082       .  S
C55         N887   1.349   1_545  A
C55          C69   1.451       .  S
C55          C86   1.456       .  S
C56        C1731   1.455       .  S
C56          H60   1.082       .  S
N57          C68   1.340       .  A
N57         Co67   2.078       .  S
N59         C883   1.349       .  A
C61          N77   1.350       .  A
C61          C73   1.452       .  S
C61          C80   1.457       .  S
C62        C1681   1.458       .  S
Co63        Cl74   2.433       .  S
N64        C1731   1.349       .  A
C65         C855   1.457       .  S
C65         C922   1.463       .  S
Co67        Cl74   2.466       .  S
C69         N859   1.335   1_645  A
N71         N863   1.324   1_645  A
C75        N1720   1.349       .  A
C75        C1712   1.455       .  S
C78          N79   1.357       .  A
C78          N83   1.363       .  A
C78         C713   1.485       .  S
N79          C80   1.351       .  A
C80          N81   1.352       .  A
N81          C82   1.354       .  A
C82          N83   1.361       .  A
C82         C152   1.461       .  S
C84          N85   1.359       .  A
C84          N89   1.361       .  A
C84         C689   1.476       .  S
N85        C1742   1.354       .  A
C86        N1741   1.354       .  A
C86        N1743   1.353       .  A
N87          C88   1.353       .  A
N87        C1742   1.353       .  A
C88          N89   1.356       .  A
C88         C142   1.459       .  S
C90          N91   1.360       .  A
C90          N95   1.359       .  A
C90         C670   1.488       .  S
N91          C92   1.356       .  A
C92          N93   1.356       .  A
C92         C122   1.461       .  S
N93          C94   1.355       .  A
C94          N95   1.356       .  A
C94         C893   1.462       .  S
C96          N97   1.357       .  A
C96         N101   1.361       .  A
C96         C641   1.480       .  S
N97          C98   1.354       .  A
C98          N99   1.357       .  A
C98         C868   1.459       .  S
N99         C100   1.357       .  A
C100        N101   1.359       .  A
C100        C138   1.466       .  S
C102        N120   1.350       .  A
C102        C139   1.460       .  S
N103        N120   1.326       .  A
N103        N125   1.321       .  A
N103       Co140   2.094       .  S
C104        N129   1.336       .  A
C104        C142   1.452       .  S
C104        H149   1.082       .  S
H105        C146   1.082       .  S
C106        N130   1.341       .  A
C106        C110   1.458       .  S
C106        H135   1.082       .  S
Co107       N125   2.086       .  S
Co107       N115   2.086       .  S
Co107       N147   2.084       .  S
Co107       N123   2.084       .  S
Co107      Cl151   2.475       .  S
N108        C146   1.338       .  A
N108        N115   1.321       .  A
N108       Co109   2.085       .  S
Co109       N112   2.080       .  S
Co109       N129   2.073       .  S
Co109       N116   2.091       .  S
Co109      Cl151   2.427       .  S
C110        N148   1.347       .  A
N111        N118   1.321       .  A
N111        N141   1.326       .  A
N111       Co144   2.082       .  S
N112        N130   1.320       .  A
N112        N148   1.323       .  A
N113        C142   1.350       .  A
N113        N123   1.326       .  A
H114        C139   1.082       .  S
N115        N136   1.326       .  A
N116        N134   1.320       .  A
N116        N121   1.325       .  A
C117        N121   1.349       .  A
C117        C145   1.461       .  S
N118        C133   1.336       .  A
N118       Co140   2.080       .  S
C119        N147   1.342       .  A
C119        C122   1.459       .  S
C119        H153   1.082       .  S
C122        N143   1.346       .  A
N123        N129   1.320       .  A
N124        C150   1.340       .  A
N124        N126   1.321       .  A
N124       Co140   2.087       .  S
N125        C139   1.343       .  A
N126        N154   1.326       .  A
N126       Co144   2.083       .  S
H127        C150   1.082       .  S
H128        C145   1.082       .  S
N130       Co144   2.079       .  S
N131        N143   1.322       .  A
N131        N147   1.320       .  A
N131       Co140   2.080       .  S
C132        N136   1.350       .  A
C132        C146   1.456       .  S
C133        C152   1.455       .  S
C133        H137   1.082       .  S
N134        C145   1.343       .  A
N134       Co144   2.088       .  S
C138        N154   1.350       .  A
C138        C150   1.456       .  S
Co140      Cl151   2.428       .  S
N141        C152   1.349       .  A
Co144      Cl151   2.474       .  S
N155        C160   1.356       .  A
N155        C159   1.356       .  A
N155        H187   1.036       .  S
N156        C163   1.349       .  A
N156        C164   1.350       .  A
N157        C162   1.348       .  A
N157        C161   1.347       .  A
N157        H188   1.038       .  S
N158        C165   1.347       .  A
N158        C166   1.351       .  A
C159        C167   1.387       .  A
C159        C175   1.422       .  A
C160        C176   1.422       .  A
C160        C168   1.388       .  A
C161        C169   1.388       .  A
C161        C178   1.408       .  A
C162        C177   1.406       .  A
C162        C170   1.387       .  A
C163        C175   1.413       .  A
C163        C171   1.387       .  A
C164        C178   1.409       .  A
C164        C172   1.384       .  A
C165        C173   1.388       .  A
C165        C176   1.412       .  A
C166        C174   1.383       .  A
C166        C177   1.407       .  A
C167        H179   1.082       .  S
C167        C168   1.375       .  A
C168        H180   1.081       .  S
C169        H181   1.083       .  S
C169        C170   1.374       .  A
C170        H182   1.083       .  S
C171       H1011   1.082       .  S
C171        C172   1.378       .  A
C172       H1012   1.082       .  S
C173        H185   1.082       .  S
C173        C174   1.377       .  A
C174        H186   1.082       .  S
C175        C593   1.494       .  S
C176        C622   1.487       .  S
C177        C761   1.482       .  S
C178        C694   1.481       .  S
H183        C999   1.082       .  S
H184       C1000   1.082       .  S
N189        C194   1.354       .  A
N189        C193   1.355       .  A
N189        H221   1.035       .  S
N190        C197   1.350   1_455  A
N190        C198   1.351   1_455  A
N191        C196   1.351       .  A
N191        C195   1.348       .  A
N191        H222   1.036   1_556  S
N192        C199   1.346       .  A
N192        C200   1.349       .  A
C193        C201   1.388       .  A
C193        C209   1.420       .  A
C194        C210   1.421       .  A
C194        C202   1.387       .  A
C195        C203   1.386       .  A
C195        C212   1.408       .  A
C196        C211   1.411       .  A
C196        C204   1.389       .  A
C197        C209   1.414   1_655  A
C197       C1861   1.388       .  A
C198        C212   1.409   1_654  A
C198       C1862   1.384       .  A
C199        C207   1.388       .  A
C199        C210   1.410       .  A
C200        C208   1.384       .  A
C200        C211   1.406   1_554  A
C201        H213   1.081       .  S
C201        C202   1.374       .  A
C202        H214   1.082       .  S
C203        H215   1.083       .  S
C203        C204   1.370       .  A
C204        H216   1.082       .  S
C205        H217   1.082       .  S
C205        C206   1.376       .  A
C205       C1853   1.388       .  A
C206        H218   1.082       .  S
C206       C1854   1.384       .  A
C207        H219   1.082       .  S
C207        C208   1.376       .  A
C208        H220   1.082       .  S
C209       C2398   1.489   1_455  S
C210        C718   1.485       .  S
C211        C550   1.481       .  S
C212       C2225   1.483   1_455  S
N223        C228   1.354       .  A
N223        C227   1.355       .  A
N223        H255   1.032       .  S
N224        C231   1.350       .  A
N224        C232   1.352       .  A
N225        C230   1.351       .  A
N225        C229   1.353       .  A
N225        H256   1.030       .  S
N226        C233   1.348       .  A
N226        C234   1.349       .  A
C227        C235   1.389       .  A
C227        C243   1.422       .  A
C228        C244   1.420       .  A
C228        C236   1.387       .  A
C229        C237   1.389       .  A
C229        C246   1.419       .  A
C230        C245   1.416       .  A
C230        C238   1.387       .  A
C231        C243   1.415       .  A
C231       C1895   1.387   1_455  A
C232        C246   1.414       .  A
C232       C1896   1.385   1_455  A
C233        C241   1.387       .  A
C233        C244   1.410       .  A
C234        C242   1.385       .  A
C234        C245   1.407       .  A
C235        H247   1.081       .  S
C235        C236   1.371       .  A
C236        H248   1.082       .  S
C237        H249   1.080       .  S
C237        C238   1.367       .  A
C238        H250   1.082       .  S
C239        H251   1.082       .  S
C239        C240   1.375       .  A
C239       C1887   1.387       .  A
C240        H252   1.082       .  S
C240       C1888   1.385       .  A
C241        H253   1.082       .  S
C241        C242   1.373       .  A
C242        H254   1.082       .  S
C243        C814   1.488   1_455  S
C244        C665   1.486       .  S
C245        C497   1.480       .  S
C246        C521   1.488   1_455  S
N257        C262   1.355       .  A
N257        C261   1.354       .  A
N257        H289   1.036       .  S
N258        C265   1.347   1_554  A
N258        C266   1.349       .  A
N259        C264   1.351       .  A
N259        C263   1.352       .  A
N259        H290   1.038       .  S
N260        C267   1.349   1_554  A
N260        C268   1.351       .  A
C261        C269   1.387       .  A
C261        C277   1.419       .  A
C262        C278   1.419       .  A
C262        C270   1.388       .  A
C263        C271   1.388       .  A
C263        C280   1.413       .  A
C264        C279   1.411       .  A
C264        C272   1.386       .  A
C265        C277   1.410       .  A
C265        C273   1.388   1_556  A
C266        C280   1.406       .  A
C266        C274   1.385       .  A
C267        C278   1.412       .  A
C267       C1103   1.387   1_556  A
C268        C279   1.409       .  A
C268       C1104   1.384       .  A
C269        H281   1.082       .  S
C269        C270   1.374       .  A
C270        H282   1.082       .  S
C271        H283   1.082       .  S
C271        C272   1.372       .  A
C272        H284   1.083       .  S
C273        H285   1.082   1_554  S
C273        C274   1.375       .  A
C274        H286   1.082       .  S
C275        H287   1.082   1_554  S
C275        C276   1.375       .  A
C275       C1095   1.387   1_544  A
C276        H288   1.082       .  S
C276       C1096   1.384   1_545  A
C277        C473   1.488       .  S
C278        C454   1.486       .  S
C279        C646   1.486       .  S
C280        C790   1.481       .  S
C291        N292   1.362       .  A
C291        N296   1.359       .  A
C291        C478   1.487       .  S
N292        C293   1.360       .  A
C293        N294   1.357       .  A
C293       C2078   1.464       .  S
N294        C295   1.354       .  A
C295        N296   1.354       .  A
C295        C327   1.462       .  S
C297        N298   1.362       .  A
C297        N302   1.357       .  A
C297        C574   1.477       .  S
N298        C299   1.359       .  A
C299        N300   1.355       .  A
C299        C432   1.461       .  S
N300        C301   1.352       .  A
C301        N302   1.352       .  A
C301        C357   1.455       .  S
C303        N304   1.359       .  A
C303        N308   1.361       .  A
C303        C449   1.481       .  S
N304        C305   1.355       .  A
C305        N306   1.356       .  A
C305        C367   1.465       .  S
N306        C307   1.357       .  A
C307        N308   1.360       .  A
C307        C412   1.465       .  S
C309        N310   1.353       .  A
C309        N314   1.358       .  A
C309        C545   1.472       .  S
N310        C311   1.354       .  A
C311        N312   1.360       .  A
C311        C347   1.463       .  S
N312        C313   1.361       .  A
C313        N314   1.359       .  A
C313        C392   1.468       .  S
C315        N316   1.359       .  A
C315        N320   1.356       .  A
C315        C502   1.471       .  S
N316        C317   1.358       .  A
C317        N318   1.357       .  A
C317        C428   1.463       .  S
N318        C319   1.356       .  A
C319        N320   1.353       .  A
C319        C342   1.458       .  S
C321        N322   1.360       .  A
C321        N326   1.359       .  A
C321        C598   1.486       .  S
N322        C323   1.357       .  A
C323        N324   1.359       .  A
C323        C335   1.466       .  S
N324        C325   1.359       .  A
C325        N326   1.358       .  A
C325        C407   1.465       .  S
C327        N345   1.350       .  A
C327        C364   1.456       .  S
N328        N345   1.325       .  A
N328        N350   1.320       .  A
N328       Co365   2.087       .  S
C329        N354   1.340       .  A
C329        C367   1.457       .  S
C329        H374   1.082       .  S
H330        C371   1.082       .  S
C331        N355   1.342       .  A
C331        C335   1.461       .  S
C331        H360   1.082       .  S
Co332       N350   2.078       .  S
Co332       N340   2.074       .  S
Co332       N372   2.075       .  S
Co332       N348   2.083       .  S
Co332      Cl376   2.463       .  S
N333        C371   1.337       .  A
N333        N340   1.319       .  A
N333       Co334   2.070       .  S
Co334       N337   2.085       .  S
Co334       N354   2.084       .  S
Co334       N341   2.072       .  S
Co334      Cl376   2.430       .  S
C335        N373   1.347       .  A
N336        N343   1.321       .  A
N336        N366   1.325       .  A
N336       Co369   2.085       .  S
N337        N355   1.320       .  A
N337        N373   1.324       .  A
N338        C367   1.350       .  A
N338        N348   1.325       .  A
H339        C364   1.082       .  S
N340        N361   1.323       .  A
N341        N359   1.320       .  A
N341        N346   1.322       .  A
C342        N346   1.345       .  A
C342        C370   1.459       .  S
N343        C358   1.339       .  A
N343       Co365   2.079       .  S
C344        N372   1.337       .  A
C344        C347   1.455       .  S
C344        H378   1.082       .  S
C347        N368   1.349       .  A
N348        N354   1.320       .  A
N349        C375   1.337       .  A
N349        N351   1.321       .  A
N349       Co365   2.079       .  S
N350        C364   1.339       .  A
N351        N379   1.326       .  A
N351       Co369   2.085       .  S
H352        C375   1.082       .  S
H353        C370   1.082       .  S
N355       Co369   2.087       .  S
N356        N368   1.327       .  A
N356        N372   1.320       .  A
N356       Co365   2.087       .  S
C357        N361   1.348       .  A
C357        C371   1.453       .  S
C358        C377   1.454       .  S
C358        H362   1.082       .  S
N359        C370   1.341       .  A
N359       Co369   2.084       .  S
C363        N379   1.349       .  A
C363        C375   1.454       .  S
C363        C390   1.460       .  S
Co365      Cl376   2.434       .  S
N366        C377   1.350       .  A
Co369      Cl376   2.468       .  S
C377        C382   1.463       .  S
C380        N381   1.358       .  A
C380        N385   1.363       .  A
C380        C526   1.485       .  S
N381        C382   1.355       .  A
C382        N383   1.356       .  A
N383        C384   1.356       .  A
C384        N385   1.361       .  A
C384        C400   1.469       .  S
C386        N387   1.362       .  A
C386        N391   1.361       .  A
C386        C617   1.481       .  S
N387        C388   1.359       .  A
C388        N389   1.353       .  A
C388        C442   1.461       .  S
N389        C390   1.352       .  A
C390        N391   1.355       .  A
C392        N410   1.349       .  A
C392        C429   1.458       .  S
N393        N410   1.326       .  A
N393        N415   1.320       .  A
N393       Co430   2.090       .  S
C394       N1247   1.336   1_545  A
C394        C432   1.452       .  S
C394        H439   1.082       .  S
H395        C436   1.082       .  S
C396        N420   1.342       .  A
C396       C2056   1.457   1_455  S
C396        H425   1.082       .  S
Co397       N415   2.082       .  S
Co397       N405   2.085       .  S
Co397       N437   2.088       .  S
Co397       N413   2.084       .  S
Co397      Cl441   2.474       .  S
N398       C2092   1.338   1_455  A
N398        N405   1.321       .  A
N398      Co2055   2.084       .  S
Co399       N419   2.078       .  S
Co399       N406   2.088       .  S
Co399      N2054   2.084       .  S
Co399      N2058   2.091       .  S
Co399     Cl2097   2.429       .  S
C400        N438   1.351       .  A
C400       C2052   1.457       .  S
N401        N408   1.321       .  A
N401        N431   1.326       .  A
N401       Co434   2.080       .  S
N402        N420   1.320       .  A
N402       N2094   1.325   1_455  A
N402      Co2055   2.091       .  S
N403       C2088   1.350   1_455  A
N403       N1241   1.327   1_545  A
H404        C429   1.082       .  S
N405        N426   1.326       .  A
N406       N2080   1.320       .  A
N406       N1239   1.325       .  A
C407        N411   1.349       .  A
C407       C2091   1.459       .  S
N408        C423   1.337       .  A
N408       Co430   2.081       .  S
C409       N1265   1.344   1_545  A
C409        C412   1.460       .  S
C409        H443   1.082       .  S
N411       N1234   1.325   1_545  A
C412        N433   1.348       .  A
N413       N1231   1.327       .  A
N413       N2075   1.321       .  A
N414       C1268   1.340       .  A
N414        N416   1.320       .  A
N414       Co430   2.084       .  S
N415        C429   1.341       .  A
N416       N1272   1.325       .  A
N416       Co434   2.080       .  S
H417        C440   1.082       .  S
H418        C435   1.082       .  S
N419       C1222   1.335       .  A
N419       N2069   1.321       .  A
N420       Co434   2.081       .  S
N421        N437   1.320       .  A
N421       N1261   1.323       .  A
N421       Co430   2.085       .  S
C422        N426   1.349   1_655  A
C422       C1949   1.464       .  S
C422       C2092   1.456       .  S
C423        C442   1.455       .  S
C423        H427   1.082       .  S
N424       C1263   1.341       .  A
N424       N2062   1.320       .  A
N424       Co434   2.082       .  S
C428        N444   1.349       .  A
C428        C440   1.456       .  S
Co430      Cl441   2.429       .  S
N431        C442   1.348       .  A
C432       N2059   1.350       .  A
N433       N1249   1.323   1_545  A
Co434      Cl441   2.472       .  S
C435       N1252   1.341   1_545  A
C435       C2063   1.459   1_455  S
C436       N2054   1.338       .  A
C436       C2078   1.456       .  S
N437       C1237   1.344       .  A
N438       N2058   1.325       .  A
C440       N1242   1.340   1_545  A
Cl441     Co2055   2.429       .  S
N444       N1244   1.325   1_545  A
C445        C446   1.414       .  A
C445        C450   1.406       .  A
C445        C459   1.443       .  S
C446        C451   1.491       .  S
C446        C447   1.403       .  A
C447        H466   1.085       .  S
C447        C448   1.395       .  A
C448        C449   1.414       .  A
C448        C460   1.445       .  S
C449        C450   1.405       .  A
C450        H465   1.085       .  S
C451        C456   1.414       .  A
C451       C1280   1.407       .  A
C452        H467   1.084       .  S
C452        C453   1.401       .  A
C452       C1279   1.407       .  A
C453        C454   1.409       .  A
C453        C457   1.444       .  S
C454       C1283   1.400       .  A
C455        H468   1.085       .  S
C455        C456   1.398       .  A
C455       C1282   1.400   1_545  A
C456        C458   1.444       .  S
C457        N461   1.157       .  T
C458        N462   1.157       .  T
C459        N464   1.157       .  T
C460        N463   1.157       .  T
C469        C470   1.413       .  A
C469        C474   1.398       .  A
C469        C483   1.445       .  S
C470        C475   1.485       .  S
C470        C471   1.404       .  A
C471        H490   1.085       .  S
C471        C472   1.399       .  A
C472        C473   1.411       .  A
C472        C484   1.444       .  S
C473        C474   1.402       .  A
C474        H489   1.085       .  S
C475        C476   1.403       .  A
C475        C480   1.410       .  A
C476        H491   1.085       .  S
C476        C477   1.403       .  A
C477        C478   1.415       .  A
C477        C481   1.442       .  S
C478        C479   1.407       .  A
C479        H492   1.084       .  S
C479        C480   1.396       .  A
C480        C482   1.446       .  S
C481       N2141   1.157       .  T
C482        N486   1.157       .  T
C483        N488   1.157       .  T
C484        N487   1.157       .  T
N485       C2137   1.157       .  T
C493        C494   1.409       .  A
C493        C498   1.398       .  A
C493        C507   1.443       .  S
C494        C499   1.475       .  S
C494        C495   1.401       .  A
C495        H514   1.085       .  S
C495        C496   1.396       .  A
C496        C497   1.410       .  A
C496        C508   1.445       .  S
C497        C498   1.402       .  A
C498        H513   1.084       .  S
C499        C500   1.398       .  A
C499        C504   1.412       .  A
C500        H515   1.085       .  S
C500        C501   1.397       .  A
C501        C502   1.414       .  A
C501        C505   1.444       .  S
C502        C503   1.401       .  A
C503        H516   1.085       .  S
C503        C504   1.398       .  A
C504        C506   1.445       .  S
C505        N509   1.157       .  T
C506        N510   1.157       .  T
C507        N512   1.157       .  T
C508        N511   1.157       .  T
C517        C518   1.414       .  A
C517        C522   1.401       .  A
C517        C531   1.444       .  S
C518        C523   1.493       .  S
C518        C519   1.407       .  A
C519        H538   1.084       .  S
C519       C2176   1.400       .  A
C520        C521   1.409       .  A
C520       C2175   1.400       .  A
C520        C532   1.444       .  S
C521       C2178   1.402   1_655  A
C522        H537   1.085       .  S
C522       C2177   1.402       .  A
C523        C524   1.403       .  A
C523        C528   1.417       .  A
C524        H539   1.085       .  S
C524        C525   1.400       .  A
C525        C526   1.416       .  A
C525        C529   1.444       .  S
C526        C527   1.403       .  A
C527        H540   1.085       .  S
C527        C528   1.402       .  A
C528       C2186   1.444       .  S
C529        N533   1.157       .  T
C530       C2184   1.444       .  S
C530        N534   1.157       .  T
C531        N536   1.157       .  T
C532        N535   1.157       .  T
C541        C542   1.407       .  A
C541        C546   1.399       .  A
C541        C555   1.444       .  S
C542        C547   1.477       .  S
C542        C543   1.404       .  A
C543        H562   1.085       .  S
C543        C544   1.400       .  A
C544        C545   1.409       .  A
C544        C556   1.444       .  S
C545        C546   1.405       .  A
C546        H561   1.085       .  S
C547        C548   1.402       .  A
C547        C552   1.410       .  A
C548        H563   1.085       .  S
C548        C549   1.399       .  A
C549        C550   1.409       .  A
C549        C553   1.443       .  S
C550        C551   1.403       .  A
C551        H564   1.085       .  S
C551        C552   1.399       .  A
C552        C554   1.444       .  S
C553        N557   1.157       .  T
C554        N558   1.157       .  T
C555        N560   1.157       .  T
C556        N559   1.157       .  T
C565        C570   1.393       .  A
C565       C2222   1.409   1_455  A
C565        C579   1.445       .  S
C566        C571   1.481       .  S
C566        C567   1.406       .  A
C566       C2221   1.409       .  A
C567        H586   1.084       .  S
C567        C568   1.403       .  A
C568        C569   1.408       .  A
C568        C580   1.443       .  S
C569       C1868   1.483       .  S
C569       C2226   1.403       .  A
C570        H585   1.085       .  S
C570       C2225   1.403   1_455  A
C571        C572   1.403       .  A
C571        C576   1.410       .  A
C572        H587   1.085       .  S
C572        C573   1.399       .  A
C573        C574   1.413       .  A
C573        C577   1.444       .  S
C574        C575   1.405       .  A
C575        H588   1.085       .  S
C575        C576   1.396       .  A
C576        C578   1.445       .  S
C577       N1409   1.157       .  T
C578        N582   1.157       .  T
C579        N584   1.157       .  T
C580        N583   1.157       .  T
N581       C1405   1.157       .  T
C589        C594   1.402       .  A
C589       C1418   1.411       .  A
C589        C603   1.444       .  S
C590        C595   1.487       .  S
C590        C591   1.403       .  A
C590       C1417   1.411   1_545  A
C591        H610   1.085       .  S
C591        C592   1.401       .  A
C592       C1421   1.412       .  A
C592        C604   1.443       .  S
C593        C594   1.405       .  A
C593       C1420   1.412       .  A
C594        H609   1.085       .  S
C595        C596   1.404       .  A
C595        C600   1.410       .  A
C596        H611   1.084       .  S
C596        C597   1.406       .  A
C597        C598   1.416       .  A
C597        C601   1.444       .  S
C598        C599   1.405       .  A
C599        H612   1.085       .  S
C599        C600   1.397       .  A
C600        C602   1.445       .  S
C601       N2261   1.157       .  T
C602        N606   1.157       .  T
C603        N608   1.157       .  T
C604        N607   1.157       .  T
N605       C2257   1.157   1_455  T
C613        C614   1.413       .  A
C613        C618   1.405       .  A
C613        C627   1.443       .  S
C614        C619   1.491       .  S
C614        C615   1.403       .  A
C615        H634   1.085       .  S
C615        C616   1.395       .  A
C616        C617   1.414       .  A
C616        C628   1.446       .  S
C617        C618   1.406       .  A
C618        H633   1.085       .  S
C619        C620   1.407       .  A
C619        C624   1.414       .  A
C620        H635   1.084       .  S
C620        C621   1.401       .  A
C621        C622   1.410       .  A
C621        C625   1.444       .  S
C622        C623   1.401       .  A
C623        H636   1.085       .  S
C623        C624   1.399       .  A
C624        C626   1.444       .  S
C625        N629   1.157       .  T
C626        N630   1.157       .  T
C627        N632   1.157       .  T
C628        N631   1.157       .  T
C637        C638   1.411   1_565  A
C637        C642   1.398   1_565  A
C637       C1479   1.445       .  S
C638        C643   1.484       .  S
C638        C639   1.403       .  A
C639        H658   1.085       .  S
C639        C640   1.401       .  A
C640        C641   1.413       .  A
C640        C652   1.444       .  S
C641        C642   1.405       .  A
C642        H657   1.085   1_545  S
C643        C644   1.405       .  A
C643        C648   1.411       .  A
C644        H659   1.084   1_545  S
C644       C1473   1.402   1_545  A
C645        C646   1.410       .  A
C645       C1472   1.402       .  A
C645        C649   1.443       .  S
C646       C1475   1.403       .  A
C647        H660   1.085       .  S
C647        C648   1.397       .  A
C647       C1474   1.403   1_545  A
C648        C650   1.444       .  S
C649        N653   1.157       .  T
C650        N654   1.157       .  T
C651       C1465   1.445       .  S
C651        N656   1.157       .  T
C652        N655   1.157       .  T
C661        C662   1.411       .  A
C661        C666   1.399       .  A
C661        C675   1.444       .  S
C662        C667   1.483       .  S
C662        C663   1.405       .  A
C663        H682   1.085       .  S
C663        C664   1.397       .  A
C664        C665   1.409       .  A
C664        C676   1.445       .  S
C665        C666   1.403       .  A
C666        H681   1.085       .  S
C667        C668   1.401       .  A
C667        C672   1.408       .  A
C668        H683   1.085       .  S
C668        C669   1.398       .  A
C669        C670   1.419       .  A
C669        C673   1.445       .  S
C670        C671   1.408       .  A
C671        H684   1.085       .  S
C671        C672   1.400       .  A
C672        C674   1.444       .  S
C673        N677   1.158       .  T
C674        N678   1.157       .  T
C675        N680   1.157   1_545  T
C676        N679   1.157       .  T
C685        C686   1.409       .  A
C685        C690   1.396       .  A
C685       C1527   1.444       .  S
C686        C691   1.474       .  S
C686        C687   1.399       .  A
C687        H706   1.085       .  S
C687        C688   1.399       .  A
C688        C689   1.416       .  A
C688        C700   1.444       .  S
C689        C690   1.403       .  A
C690        H705   1.085       .  S
C691        C696   1.410       .  A
C691       C1520   1.398   1_545  A
C692        H707   1.085       .  S
C692        C693   1.395       .  A
C692       C1519   1.398       .  A
C693        C694   1.413       .  A
C693        C697   1.445       .  S
C694       C1523   1.402       .  A
C695        H708   1.084       .  S
C695        C696   1.401       .  A
C695       C1522   1.402       .  A
C696        C698   1.443       .  S
C697        N701   1.157       .  T
C698        N702   1.157       .  T
C699       C1513   1.444       .  S
C699        N704   1.157       .  T
C700        N703   1.157       .  T
C709        C710   1.410       .  A
C709        C714   1.403       .  A
C709        C723   1.443       .  S
C710        C715   1.482       .  S
C710        C711   1.399       .  A
C711        H730   1.086       .  S
C711        C712   1.393       .  A
C712        C713   1.420       .  A
C712        C724   1.446       .  S
C713        C714   1.407       .  A
C714        H729   1.084       .  S
C715        C716   1.404       .  A
C715        C720   1.412       .  A
C716        H731   1.085       .  S
C716        C717   1.397       .  A
C717        C718   1.409       .  A
C717        C721   1.444       .  S
C718        C719   1.403       .  A
C719        H732   1.085       .  S
C719        C720   1.399       .  A
C720        C722   1.444       .  S
C721        N725   1.157       .  T
C722        N726   1.157       .  T
C723        N728   1.157       .  T
C724        N727   1.158       .  T
C733        C734   1.414       .  A
C733        C738   1.404       .  A
C733        C747   1.444       .  S
C734        C739   1.493       .  S
C734        C735   1.404       .  A
C735        H754   1.085       .  S
C735        C736   1.398       .  A
C736        C737   1.415       .  A
C736        C748   1.445       .  S
C737        C738   1.405       .  A
C738        H753   1.085       .  S
C739        C740   1.407       .  A
C739        C744   1.415       .  A
C740        H755   1.084       .  S
C740        C741   1.400       .  A
C741        C742   1.409       .  A
C741       C2401   1.443       .  S
C742       C1865   1.489       .  S
C742        C743   1.402       .  A
C743        H756   1.085       .  S
C743        C744   1.400       .  A
C744        C746   1.444       .  S
C745       C2397   1.443       .  S
C745        N749   1.157       .  T
C746        N750   1.157       .  T
C747        N752   1.157       .  T
C748        N751   1.158       .  T
C757        C758   1.411       .  A
C757        C762   1.395       .  A
C757        C771   1.445       .  S
C758        C763   1.486       .  S
C758        C759   1.407       .  A
C759        H778   1.084       .  S
C759        C760   1.403       .  A
C760        C761   1.408       .  A
C760        C772   1.443       .  S
C761        C762   1.402       .  A
C762        H777   1.085       .  S
C763        C764   1.403       .  A
C763        C768   1.411       .  A
C764        H779   1.085       .  S
C764        C765   1.400       .  A
C765        C766   1.414       .  A
C765        C769   1.443       .  S
C766        C767   1.408       .  A
C767        H780   1.085       .  S
C767        C768   1.399       .  A
C768        C770   1.446       .  S
C769        N773   1.157       .  T
C770        N774   1.158       .  T
C771        N776   1.157       .  T
C772        N775   1.157       .  T
C781        C782   1.412       .  A
C781        C786   1.397       .  A
C781        C795   1.445       .  S
C782        C787   1.481       .  S
C782        C783   1.402       .  A
C783        H802   1.085       .  S
C783        C784   1.401       .  A
C784        C785   1.415       .  A
C784        C796   1.445       .  S
C785        C786   1.402       .  A
C786        H801   1.085       .  S
C787        C788   1.402       .  A
C787        C792   1.412       .  A
C788        H803   1.085       .  S
C788        C789   1.397       .  A
C789        C790   1.409       .  A
C789        C793   1.444       .  S
C790        C791   1.402       .  A
C791        H804   1.085       .  S
C791        C792   1.400       .  A
C792        C794   1.444       .  S
C793        N797   1.157       .  T
C794        N798   1.157       .  T
C795        N800   1.157       .  T
C796       N2455   1.157       .  T
N799       C2452   1.157   1_455  T
C805        C806   1.411       .  A
C805        C810   1.406       .  A
C805        C819   1.443       .  S
C806        C811   1.486       .  S
C806        C807   1.401       .  A
C807        H826   1.085       .  S
C807        C808   1.395       .  A
C808        C809   1.415       .  A
C808        C820   1.445       .  S
C809        C810   1.406       .  A
C810        H825   1.084       .  S
C811        C812   1.405       .  A
C811        C816   1.412       .  A
C812        H827   1.084       .  S
C812       C2469   1.401       .  A
C813        C814   1.411       .  A
C813       C2468   1.401       .  A
C813        C817   1.444       .  S
C814       C2471   1.402   1_655  A
C815        H828   1.085       .  S
C815        C816   1.399       .  A
C815       C2470   1.402       .  A
C816        C818   1.444       .  S
C817        N821   1.157       .  T
C818        N822   1.157       .  T
C819        N824   1.157       .  T
C820        N823   1.157       .  T
C829        N830   1.361       .  A
C829        N834   1.359       .  A
C829       C1637   1.480       .  S
N830        C831   1.361       .  A
C831        N832   1.356       .  A
C831        C960   1.464       .  S
N832        C833   1.354       .  A
C833        N834   1.355       .  A
C833        C853   1.461       .  S
C835        N836   1.358       .  A
C835        N840   1.359       .  A
C835       C1613   1.477       .  S
N836        C837   1.356       .  A
C837        N838   1.356       .  A
C837        C903   1.461       .  S
N838        C839   1.356       .  A
C839        N840   1.357       .  A
C839        C938   1.461       .  S
C841        N842   1.354       .  A
C841        N846   1.361       .  A
C841       C1594   1.483       .  S
N842        C843   1.352       .  A
C843        N844   1.359       .  A
C843        C873   1.463       .  S
N844        C845   1.361       .  A
C845        N846   1.361       .  A
C845        C930   1.472       .  S
C847        N848   1.360       .  A
C847        N852   1.359       .  A
C847       C1565   1.483       .  S
N848        C849   1.359       .  A
C849        N850   1.360       .  A
C849        C945   1.469       .  S
N850        C851   1.359       .  A
C851        N852   1.356       .  A
C851       C2517   1.467       .  S
C853       N2527   1.348       .  A
C853       C2546   1.458       .  S
N854        N871   1.323   1_455  A
N854        N876   1.320       .  A
N854       Co891   2.081       .  S
C855        H900   1.082       .  S
H856        C897   1.082       .  S
C857        N881   1.343   1_655  A
C857        H886   1.082       .  S
Co858       N876   2.082       .  S
Co858       N866   2.079       .  S
Co858       N898   2.078       .  S
Co858       N874   2.081       .  S
Co858      Cl902   2.463       .  S
N859        N866   1.320       .  A
N859       Co860   2.070       .  S
Co860       N863   2.086       .  S
Co860       N880   2.081       .  S
Co860       N867   2.075       .  S
Co860      Cl902   2.429       .  S
C861        N899   1.348       .  A
C861       C2507   1.467       .  S
N862        N869   1.320       .  A
N862        N892   1.324   1_455  A
N862       Co895   2.081       .  S
N863        N881   1.320       .  A
N864        C893   1.348   1_565  A
N864        N874   1.324       .  A
H865        C890   1.082       .  S
N866        N887   1.325   1_455  A
N867        N885   1.319       .  A
C868        C896   1.457   1_545  S
N869        C884   1.340   1_455  A
N869       Co891   2.081       .  S
C870        N898   1.338       .  A
C870        C873   1.458       .  S
C870        H904   1.082       .  S
N871       C2509   1.348       .  A
C873        N894   1.348       .  A
N874        N880   1.320       .  A
N875        C901   1.337       .  A
N875        N877   1.320       .  A
N875       Co891   2.073       .  S
N876        C890   1.341   1_455  A
N877        N905   1.325       .  A
N877       Co895   2.084       .  S
H878        C901   1.082       .  S
H879        C896   1.082       .  S
N881       Co895   2.090       .  S
N882        N894   1.326       .  A
N882        N898   1.319       .  A
N882       Co891   2.083       .  S
C883        C897   1.452       .  S
C883        C914   1.456       .  S
C884       C2559   1.455       .  S
C884        H888   1.082       .  S
N885        C896   1.340       .  A
N885       Co895   2.078       .  S
C889        N905   1.349       .  A
C889        C901   1.452       .  S
C889        C908   1.457       .  S
C890       C2509   1.458       .  S
Co891      Cl902   2.433       .  S
N892       C2559   1.348       .  A
Co895      Cl902   2.466       .  S
C903       N2548   1.348       .  A
C903       C2540   1.455       .  S
C906        N907   1.357       .  A
C906        N911   1.363       .  A
C906       C1541   1.485       .  S
N907        C908   1.351       .  A
C908        N909   1.352       .  A
N909        C910   1.354       .  A
C910        N911   1.361       .  A
C910        C980   1.461       .  S
C912        N913   1.359       .  A
C912        N917   1.361       .  A
C912       C1517   1.477       .  S
N913       C2570   1.355       .  A
C914       N2569   1.355       .  A
C914       N2571   1.353       .  A
N915       C2570   1.353       .  A
N915        C916   1.353       .  A
C916        N917   1.356       .  A
C916        C970   1.459       .  S
C918        N919   1.360       .  A
C918        N923   1.359       .  A
C918       C1498   1.488       .  S
N919        C920   1.356       .  A
C920        N921   1.356       .  A
C920        C950   1.461       .  S
N921        C922   1.355       .  A
C922        N923   1.356       .  A
C924        N925   1.357       .  A
C924        N929   1.360       .  A
C924       C1469   1.480       .  S
N925        C926   1.354       .  A
C926        N927   1.357       .  A
N927        C928   1.357       .  A
C928        N929   1.359       .  A
C928        C966   1.466       .  S
C930        N948   1.350       .  A
C930        C967   1.460       .  S
N931        N948   1.326       .  A
N931        N953   1.321       .  A
N931       Co968   2.094       .  S
C932        N957   1.336       .  A
C932        C970   1.452       .  S
C932        H977   1.082       .  S
H933        C974   1.082       .  S
C934        N958   1.341       .  A
C934        C938   1.457       .  S
C934        H963   1.082       .  S
Co935       N953   2.086       .  S
Co935       N943   2.085       .  S
Co935       N975   2.084       .  S
Co935       N951   2.084       .  S
Co935      Cl979   2.475       .  S
N936        C974   1.338       .  A
N936        N943   1.321       .  A
N936       Co937   2.085       .  S
Co937       N940   2.081       .  S
Co937       N957   2.073       .  S
Co937       N944   2.092       .  S
Co937      Cl979   2.427       .  S
C938        N976   1.347       .  A
N939        N946   1.321       .  A
N939        N969   1.326       .  A
N939       Co972   2.082       .  S
N940        N958   1.320       .  A
N940        N976   1.323       .  A
N941        C970   1.350       .  A
N941        N951   1.326       .  A
H942        C967   1.082       .  S
N943        N964   1.326       .  A
N944        N962   1.320       .  A
N944        N949   1.325       .  A
C945        N949   1.349       .  A
C945        C973   1.461       .  S
N946        C961   1.336       .  A
N946       Co968   2.079       .  S
C947        N975   1.342       .  A
C947        C950   1.459       .  S
C947        H981   1.082       .  S
C950        N971   1.346       .  A
N951        N957   1.320       .  A
N952        C978   1.340       .  A
N952        N954   1.321       .  A
N952       Co968   2.086       .  S
N953        C967   1.343       .  A
N954        N982   1.325       .  A
N954       Co972   2.083       .  S
H955        C978   1.082       .  S
H956        C973   1.082       .  S
N958       Co972   2.079       .  S
N959        N971   1.322       .  A
N959        N975   1.320       .  A
N959       Co968   2.079       .  S
C960        N964   1.350       .  A
C960        C974   1.456       .  S
C961        C980   1.455       .  S
C961        H965   1.082       .  S
N962        C973   1.343       .  A
N962       Co972   2.088       .  S
C966        N982   1.350       .  A
C966        C978   1.456       .  S
Co968      Cl979   2.428       .  S
N969        C980   1.349       .  A
Co972      Cl979   2.474       .  S
N983        C988   1.356       .  A
N983        C987   1.356       .  A
N983       H1015   1.036       .  S
N984        C991   1.349       .  A
N984        C992   1.350       .  A
N985        C990   1.348       .  A
N985        C989   1.347       .  A
N985       H1016   1.038       .  S
N986        C993   1.347       .  A
N986        C994   1.351       .  A
C987        C995   1.387       .  A
C987       C1003   1.422       .  A
C988       C1004   1.422       .  A
C988        C996   1.388       .  A
C989        C997   1.388       .  A
C989       C1006   1.407       .  A
C990       C1005   1.406       .  A
C990        C998   1.387       .  A
C991       C1003   1.413       .  A
C991        C999   1.387   1_565  A
C992       C1006   1.408       .  A
C992       C1000   1.384   1_565  A
C993       C1001   1.388       .  A
C993       C1004   1.412       .  A
C994       C1002   1.383       .  A
C994       C1005   1.407       .  A
C995       H1007   1.082       .  S
C995        C996   1.375       .  A
C996       H1008   1.081       .  S
C997       H1009   1.083   1_565  S
C997        C998   1.374       .  A
C998       H1010   1.083       .  S
C999       C1000   1.378       .  A
C1001      H1013   1.082       .  S
C1001      C1002   1.377       .  A
C1002      H1014   1.082       .  S
C1003      C1421   1.494   1_565  S
C1004      C1450   1.487       .  S
C1005      C1589   1.482       .  S
C1006      C1522   1.480   1_565  S
N1017      C1022   1.354       .  A
N1017      C1021   1.355       .  A
N1017      H1049   1.035       .  S
N1018      C1025   1.349   1_455  A
N1018      C1026   1.351   1_455  A
N1019      C1024   1.351       .  A
N1019      C1023   1.348       .  A
N1019      H1050   1.036   1_556  S
N1020      C1027   1.346       .  A
N1020      C1028   1.349       .  A
C1021      C1029   1.388       .  A
C1021      C1037   1.420       .  A
C1022      C1038   1.421       .  A
C1022      C1030   1.387       .  A
C1023      C1031   1.386       .  A
C1023      C1040   1.408       .  A
C1024      C1039   1.411       .  A
C1024      C1032   1.389       .  A
C1025      C1037   1.414   1_655  A
C1025      C2689   1.388       .  A
C1026      C1040   1.409   1_654  A
C1026      C2690   1.384       .  A
C1027      C1035   1.388       .  A
C1027      C1038   1.410       .  A
C1028      C1036   1.384       .  A
C1028      C1039   1.406   1_554  A
C1029      H1041   1.081       .  S
C1029      C1030   1.374       .  A
C1030      H1042   1.082       .  S
C1031      H1043   1.083       .  S
C1031      C1032   1.370       .  A
C1032      H1044   1.082       .  S
C1033      H1045   1.082       .  S
C1033      C2681   1.388       .  A
C1033      C1034   1.376       .  A
C1034      H1046   1.082       .  S
C1034      C2682   1.384       .  A
C1035      H1047   1.082       .  S
C1035      C1036   1.376       .  A
C1036      H1048   1.082       .  S
C1037      C3226   1.488   1_455  S
C1038      C1546   1.485       .  S
C1039      C1378   1.481       .  S
C1040      C3053   1.483   1_455  S
N1051      C1056   1.354       .  A
N1051      C1055   1.354       .  A
N1051      H1083   1.032       .  S
N1052      C1059   1.350       .  A
N1052      C1060   1.352       .  A
N1053      C1058   1.351       .  A
N1053      C1057   1.353       .  A
N1053      H1084   1.031       .  S
N1054      C1061   1.348       .  A
N1054      C1062   1.349       .  A
C1055      C1063   1.389       .  A
C1055      C1071   1.422       .  A
C1056      C1072   1.420       .  A
C1056      C1064   1.387       .  A
C1057      C1065   1.389       .  A
C1057      C1074   1.419       .  A
C1058      C1073   1.416       .  A
C1058      C1066   1.387       .  A
C1059      C1071   1.415       .  A
C1059      C2723   1.387   1_455  A
C1060      C1074   1.414       .  A
C1060      C2724   1.385   1_455  A
C1061      C1069   1.387       .  A
C1061      C1072   1.410       .  A
C1062      C1070   1.385       .  A
C1062      C1073   1.407       .  A
C1063      H1075   1.081       .  S
C1063      C1064   1.371       .  A
C1064      H1076   1.082       .  S
C1065      H1077   1.080       .  S
C1065      C1066   1.367       .  A
C1066      H1078   1.082       .  S
C1067      H1079   1.082       .  S
C1067      C2715   1.387       .  A
C1067      C1068   1.375       .  A
C1068      H1080   1.082       .  S
C1068      C2716   1.385       .  A
C1069      H1081   1.082       .  S
C1069      C1070   1.374       .  A
C1070      H1082   1.082       .  S
C1071      C1642   1.488   1_455  S
C1072      C1493   1.486       .  S
C1073      C1325   1.479       .  S
C1074      C1349   1.488   1_455  S
N1085      C1090   1.355       .  A
N1085      C1089   1.354       .  A
N1085      H1117   1.036       .  S
N1086      C1093   1.347   1_554  A
N1086      C1094   1.349       .  A
N1087      C1092   1.351       .  A
N1087      C1091   1.352       .  A
N1087      H1118   1.037       .  S
N1088      C1095   1.349   1_554  A
N1088      C1096   1.351       .  A
C1089      C1097   1.387       .  A
C1089      C1105   1.420       .  A
C1090      C1106   1.419       .  A
C1090      C1098   1.388       .  A
C1091      C1099   1.388       .  A
C1091      C1108   1.413       .  A
C1092      C1107   1.411       .  A
C1092      C1100   1.387       .  A
C1093      C1105   1.411       .  A
C1093      C1101   1.388   1_556  A
C1094      C1108   1.406       .  A
C1094      C1102   1.385       .  A
C1095      C1106   1.412       .  A
C1096      C1107   1.409       .  A
C1097      H1109   1.082       .  S
C1097      C1098   1.374       .  A
C1098      H1110   1.082       .  S
C1099      H1111   1.082       .  S
C1099      C1100   1.372       .  A
C1100      H1112   1.083       .  S
C1101      H1113   1.082   1_554  S
C1101      C1102   1.375       .  A
C1102      H1114   1.082       .  S
C1103      H1115   1.082   1_554  S
C1103      C1104   1.375       .  A
C1104      H1116   1.082       .  S
C1105      C1301   1.488       .  S
C1106      C1282   1.486       .  S
C1107      C1474   1.486       .  S
C1108      C1618   1.481       .  S
C1119      N1120   1.362       .  A
C1119      N1124   1.359       .  A
C1119      C1306   1.487       .  S
N1120      C1121   1.360       .  A
C1121      N1122   1.357       .  A
C1121      C2906   1.464       .  S
N1122      C1123   1.354       .  A
C1123      N1124   1.354       .  A
C1123      C1155   1.462       .  S
C1125      N1126   1.362       .  A
C1125      N1130   1.357       .  A
C1125      C1402   1.477       .  S
N1126      C1127   1.359       .  A
C1127      N1128   1.355       .  A
C1127      C1260   1.461       .  S
N1128      C1129   1.352       .  A
C1129      N1130   1.352       .  A
C1129      C1185   1.455       .  S
C1131      N1132   1.359       .  A
C1131      N1136   1.361       .  A
C1131      C1277   1.481       .  S
N1132      C1133   1.356       .  A
C1133      N1134   1.356       .  A
C1133      C1195   1.465       .  S
N1134      C1135   1.357       .  A
C1135      N1136   1.360       .  A
C1135      C1240   1.465       .  S
C1137      N1138   1.353       .  A
C1137      N1142   1.358       .  A
C1137      C1373   1.472       .  S
N1138      C1139   1.354       .  A
C1139      N1140   1.360       .  A
C1139      C1175   1.463       .  S
N1140      C1141   1.361       .  A
C1141      N1142   1.359       .  A
C1141      C1220   1.468       .  S
C1143      N1144   1.359       .  A
C1143      N1148   1.356       .  A
C1143      C1330   1.471       .  S
N1144      C1145   1.358       .  A
C1145      N1146   1.357       .  A
C1145      C1256   1.463       .  S
N1146      C1147   1.356       .  A
C1147      N1148   1.353       .  A
C1147      C1170   1.458       .  S
C1149      N1150   1.360       .  A
C1149      N1154   1.359       .  A
C1149      C1426   1.486       .  S
N1150      C1151   1.357       .  A
C1151      N1152   1.359       .  A
C1151      C1163   1.466       .  S
N1152      C1153   1.359       .  A
C1153      N1154   1.358       .  A
C1153      C1235   1.465       .  S
C1155      N1173   1.350       .  A
C1155      C1192   1.456       .  S
N1156      N1173   1.325       .  A
N1156      N1178   1.320       .  A
N1156     Co1193   2.087       .  S
C1157      N1182   1.340       .  A
C1157      C1195   1.457       .  S
C1157      H1202   1.082       .  S
H1158      C1199   1.082       .  S
C1159      N1183   1.342       .  A
C1159      C1163   1.461       .  S
C1159      H1188   1.082       .  S
Co1160     N1178   2.078       .  S
Co1160     N1168   2.075       .  S
Co1160     N1200   2.075       .  S
Co1160     N1176   2.083       .  S
Co1160    Cl1204   2.463       .  S
N1161      C1199   1.337       .  A
N1161      N1168   1.319       .  A
N1161     Co1162   2.070       .  S
Co1162     N1165   2.085       .  S
Co1162     N1182   2.084       .  S
Co1162     N1169   2.072       .  S
Co1162    Cl1204   2.430       .  S
C1163      N1201   1.347       .  A
N1164      N1171   1.321       .  A
N1164      N1194   1.325       .  A
N1164     Co1197   2.085       .  S
N1165      N1183   1.320       .  A
N1165      N1201   1.324       .  A
N1166      C1195   1.350       .  A
N1166      N1176   1.325       .  A
H1167      C1192   1.082       .  S
N1168      N1189   1.323       .  A
N1169      N1187   1.320       .  A
N1169      N1174   1.322       .  A
C1170      N1174   1.345       .  A
C1170      C1198   1.459       .  S
N1171      C1186   1.339       .  A
N1171     Co1193   2.079       .  S
C1172      N1200   1.337       .  A
C1172      C1175   1.456       .  S
C1172      H1206   1.082       .  S
C1175      N1196   1.349       .  A
N1176      N1182   1.320       .  A
N1177      C1203   1.337       .  A
N1177      N1179   1.321       .  A
N1177     Co1193   2.079       .  S
N1178      C1192   1.339       .  A
N1179      N1207   1.326       .  A
N1179     Co1197   2.085       .  S
H1180      C1203   1.082       .  S
H1181      C1198   1.082       .  S
N1183     Co1197   2.088       .  S
N1184      N1196   1.327       .  A
N1184      N1200   1.320       .  A
N1184     Co1193   2.086       .  S
C1185      N1189   1.348       .  A
C1185      C1199   1.453       .  S
C1186      C1205   1.454       .  S
C1186      H1190   1.082       .  S
N1187      C1198   1.341       .  A
N1187     Co1197   2.083       .  S
C1191      N1207   1.349       .  A
C1191      C1203   1.454       .  S
C1191      C1218   1.460       .  S
Co1193    Cl1204   2.434       .  S
N1194      C1205   1.350       .  A
Co1197    Cl1204   2.467       .  S
C1205      C1210   1.463       .  S
C1208      N1209   1.358       .  A
C1208      N1213   1.363       .  A
C1208      C1354   1.485       .  S
N1209      C1210   1.355       .  A
C1210      N1211   1.356       .  A
N1211      C1212   1.357       .  A
C1212      N1213   1.361       .  A
C1212      C1228   1.469       .  S
C1214      N1215   1.362       .  A
C1214      N1219   1.360       .  A
C1214      C1445   1.481       .  S
N1215      C1216   1.359       .  A
C1216      N1217   1.353       .  A
C1216      C1270   1.461       .  S
N1217      C1218   1.352       .  A
C1218      N1219   1.355       .  A
C1220      N1238   1.349       .  A
C1220      C1257   1.459       .  S
N1221      N1238   1.326       .  A
N1221      N1243   1.320       .  A
N1221     Co1258   2.090       .  S
C1222      C1260   1.452       .  S
C1222      H1267   1.082       .  S
H1223      C1264   1.082       .  S
C1224      N1248   1.342       .  A
C1224      C2884   1.457   1_455  S
C1224      H1253   1.082       .  S
Co1225     N1243   2.083       .  S
Co1225     N1233   2.085       .  S
Co1225     N1265   2.088       .  S
Co1225     N1241   2.084       .  S
Co1225    Cl1269   2.474       .  S
N1226      C2920   1.338   1_455  A
N1226      N1233   1.321       .  A
N1226     Co2883   2.083       .  S
Co1227     N2882   2.083       .  S
Co1227     N2886   2.091       .  S
Co1227     N1247   2.079       .  S
Co1227     N1234   2.088       .  S
Co1227    Cl2925   2.429       .  S
C1228      N1266   1.351       .  A
C1228      C2880   1.457       .  S
N1229      N1236   1.321       .  A
N1229      N1259   1.326       .  A
N1229     Co1262   2.080       .  S
N1230      N1248   1.320       .  A
N1230      N2922   1.325   1_455  A
N1230     Co2883   2.091       .  S
N1231      C2916   1.350   1_455  A
H1232      C1257   1.082       .  S
N1233      N1254   1.326       .  A
N1234      N2908   1.320       .  A
C1235      N1239   1.349       .  A
C1235      C2919   1.459       .  S
N1236      C1251   1.337       .  A
N1236     Co1258   2.082       .  S
C1237      C1240   1.461       .  S
C1237      H1271   1.082       .  S
C1240      N1261   1.348       .  A
N1241      N2903   1.321       .  A
N1242      N1244   1.321       .  A
N1242     Co1258   2.084       .  S
N1243      C1257   1.341       .  A
N1244     Co1262   2.080       .  S
H1245      C1268   1.082       .  S
H1246      C1263   1.082       .  S
N1247      N2897   1.321       .  A
N1248     Co1262   2.081       .  S
N1249      N1265   1.320       .  A
N1249     Co1258   2.085       .  S
C1250      N1254   1.349   1_655  A
C1250      C2777   1.464       .  S
C1250      C2920   1.456       .  S
C1251      C1270   1.455       .  S
C1251      H1255   1.082       .  S
N1252      N2890   1.320       .  A
N1252     Co1262   2.082       .  S
C1256      N1272   1.349       .  A
C1256      C1268   1.456       .  S
Co1258    Cl1269   2.429       .  S
N1259      C1270   1.348       .  A
C1260      N2887   1.350       .  A
Co1262    Cl1269   2.472       .  S
C1263      C2891   1.459   1_455  S
C1264      N2882   1.338       .  A
C1264      C2906   1.456       .  S
N1266      N2886   1.325       .  A
Cl1269    Co2883   2.429       .  S
C1273      C1274   1.414       .  A
C1273      C1278   1.406       .  A
C1273      C1287   1.443       .  S
C1274      C1279   1.492       .  S
C1274      C1275   1.403       .  A
C1275      H1294   1.085       .  S
C1275      C1276   1.395       .  A
C1276      C1277   1.414       .  A
C1276      C1288   1.445       .  S
C1277      C1278   1.405       .  A
C1278      H1293   1.085       .  S
C1279      C1284   1.415       .  A
C1280      H1295   1.084   1_545  S
C1280      C1281   1.401   1_545  A
C1281      C1282   1.409       .  A
C1281      C1285   1.444       .  S
C1283      H1296   1.085       .  S
C1283      C1284   1.398       .  A
C1284      C1286   1.444       .  S
C1285      N1289   1.157       .  T
C1286      N1290   1.157       .  T
C1287      N1292   1.157       .  T
C1288      N1291   1.157       .  T
C1297      C1298   1.413       .  A
C1297      C1302   1.398       .  A
C1297      C1311   1.445       .  S
C1298      C1303   1.485       .  S
C1298      C1299   1.404       .  A
C1299      H1318   1.085       .  S
C1299      C1300   1.399       .  A
C1300      C1301   1.411       .  A
C1300      C1312   1.444       .  S
C1301      C1302   1.402       .  A
C1302      H1317   1.085       .  S
C1303      C1304   1.403       .  A
C1303      C1308   1.410       .  A
C1304      H1319   1.085       .  S
C1304      C1305   1.403       .  A
C1305      C1306   1.415       .  A
C1305      C1309   1.442       .  S
C1306      C1307   1.407       .  A
C1307      H1320   1.084       .  S
C1307      C1308   1.396       .  A
C1308      C1310   1.446       .  S
C1309      N2969   1.157       .  T
C1310      N1314   1.157       .  T
C1311      N1316   1.157       .  T
C1312      N1315   1.157       .  T
N1313      C2965   1.157       .  T
C1321      C1322   1.409       .  A
C1321      C1326   1.398       .  A
C1321      C1335   1.443       .  S
C1322      C1327   1.474       .  S
C1322      C1323   1.401       .  A
C1323      H1342   1.085       .  S
C1323      C1324   1.396       .  A
C1324      C1325   1.410       .  A
C1324      C1336   1.445       .  S
C1325      C1326   1.402       .  A
C1326      H1341   1.085       .  S
C1327      C1328   1.398       .  A
C1327      C1332   1.412       .  A
C1328      H1343   1.085       .  S
C1328      C1329   1.397       .  A
C1329      C1330   1.414       .  A
C1329      C1333   1.444       .  S
C1330      C1331   1.401       .  A
C1331      H1344   1.085       .  S
C1331      C1332   1.398       .  A
C1332      C1334   1.445       .  S
C1333      N1337   1.157       .  T
C1334      N1338   1.157       .  T
C1335      N1340   1.157       .  T
C1336      N1339   1.157       .  T
C1345      C1346   1.414       .  A
C1345      C1350   1.401       .  A
C1345      C1359   1.444       .  S
C1346      C1351   1.494       .  S
C1346      C1347   1.407       .  A
C1347      H1366   1.084       .  S
C1347      C3004   1.401       .  A
C1348      C3003   1.401       .  A
C1348      C1349   1.409       .  A
C1348      C1360   1.444       .  S
C1349      C3006   1.402   1_655  A
C1350      H1365   1.085       .  S
C1350      C3005   1.402       .  A
C1351      C1352   1.403       .  A
C1351      C1356   1.417       .  A
C1352      H1367   1.085       .  S
C1352      C1353   1.400       .  A
C1353      C1354   1.416       .  A
C1353      C1357   1.444       .  S
C1354      C1355   1.403       .  A
C1355      H1368   1.085       .  S
C1355      C1356   1.402       .  A
C1356      C3014   1.444       .  S
C1357      N1361   1.157       .  T
C1358      C3012   1.444       .  S
C1358      N1362   1.157       .  T
C1359      N1364   1.157       .  T
C1360      N1363   1.157       .  T
C1369      C1370   1.407       .  A
C1369      C1374   1.399       .  A
C1369      C1383   1.444       .  S
C1370      C1375   1.477       .  S
C1370      C1371   1.404       .  A
C1371      H1390   1.085       .  S
C1371      C1372   1.400       .  A
C1372      C1373   1.409       .  A
C1372      C1384   1.444       .  S
C1373      C1374   1.405       .  A
C1374      H1389   1.085       .  S
C1375      C1376   1.402       .  A
C1375      C1380   1.410       .  A
C1376      H1391   1.085       .  S
C1376      C1377   1.399       .  A
C1377      C1378   1.409       .  A
C1377      C1381   1.443       .  S
C1378      C1379   1.403       .  A
C1379      H1392   1.085       .  S
C1379      C1380   1.399       .  A
C1380      C1382   1.445       .  S
C1381      N1385   1.157       .  T
C1382      N1386   1.157       .  T
C1383      N1388   1.157       .  T
C1384      N1387   1.157       .  T
C1393      C3050   1.409   1_455  A
C1393      C1398   1.393       .  A
C1393      C1407   1.445       .  S
C1394      C1399   1.481       .  S
C1394      C3049   1.409       .  A
C1394      C1395   1.406       .  A
C1395      H1414   1.084       .  S
C1395      C1396   1.402       .  A
C1396      C1397   1.408       .  A
C1396      C1408   1.443       .  S
C1397      C2696   1.483       .  S
C1397      C3054   1.403       .  A
C1398      H1413   1.085       .  S
C1398      C3053   1.403   1_455  A
C1399      C1400   1.403       .  A
C1399      C1404   1.410       .  A
C1400      H1415   1.085       .  S
C1400      C1401   1.399       .  A
C1401      C1402   1.413       .  A
C1401      C1405   1.444       .  S
C1402      C1403   1.405       .  A
C1403      H1416   1.085       .  S
C1403      C1404   1.396       .  A
C1404      C1406   1.445       .  S
C1406      N1410   1.157       .  T
C1407      N1412   1.157       .  T
C1408      N1411   1.157       .  T
C1417      C1422   1.402       .  A
C1417      C1431   1.444       .  S
C1418      C1423   1.487       .  S
C1418      C1419   1.403       .  A
C1419      H1438   1.085       .  S
C1419      C1420   1.401       .  A
C1420      C1432   1.443       .  S
C1421      C1422   1.405   1_545  A
C1422      H1437   1.085       .  S
C1423      C1424   1.404       .  A
C1423      C1428   1.410       .  A
C1424      H1439   1.084       .  S
C1424      C1425   1.406       .  A
C1425      C1426   1.416       .  A
C1425      C1429   1.444       .  S
C1426      C1427   1.405       .  A
C1427      H1440   1.085       .  S
C1427      C1428   1.397       .  A
C1428      C1430   1.445       .  S
C1429      N3089   1.157       .  T
C1430      N1434   1.157       .  T
C1431      N1436   1.157       .  T
C1432      N1435   1.157       .  T
N1433      C3085   1.157   1_455  T
C1441      C1442   1.413       .  A
C1441      C1446   1.405       .  A
C1441      C1455   1.443       .  S
C1442      C1447   1.491       .  S
C1442      C1443   1.403       .  A
C1443      H1462   1.085       .  S
C1443      C1444   1.395       .  A
C1444      C1445   1.414       .  A
C1444      C1456   1.446       .  S
C1445      C1446   1.406       .  A
C1446      H1461   1.085       .  S
C1447      C1448   1.407       .  A
C1447      C1452   1.414       .  A
C1448      H1463   1.084       .  S
C1448      C1449   1.401       .  A
C1449      C1450   1.410       .  A
C1449      C1453   1.444       .  S
C1450      C1451   1.401       .  A
C1451      H1464   1.085       .  S
C1451      C1452   1.399       .  A
C1452      C1454   1.444       .  S
C1453      N1457   1.157       .  T
C1454      N1458   1.157       .  T
C1455      N1460   1.157       .  T
C1456      N1459   1.157       .  T
C1465      C1466   1.411       .  A
C1465      C1470   1.398       .  A
C1466      C1471   1.484       .  S
C1466      C1467   1.403       .  A
C1467      H1486   1.085       .  S
C1467      C1468   1.401       .  A
C1468      C1469   1.414       .  A
C1468      C1480   1.444       .  S
C1469      C1470   1.405       .  A
C1470      H1485   1.085       .  S
C1471      C1472   1.405       .  A
C1471      C1476   1.411       .  A
C1472      H1487   1.084       .  S
C1473      C1474   1.410       .  A
C1473      C1477   1.443       .  S
C1475      H1488   1.085       .  S
C1475      C1476   1.397       .  A
C1476      C1478   1.445       .  S
C1477      N1481   1.157       .  T
C1478      N1482   1.157       .  T
C1479      N1484   1.157       .  T
C1480      N1483   1.157       .  T
C1489      C1490   1.411       .  A
C1489      C1494   1.400       .  A
C1489      C1503   1.444       .  S
C1490      C1495   1.484       .  S
C1490      C1491   1.405       .  A
C1491      H1510   1.085       .  S
C1491      C1492   1.397       .  A
C1492      C1493   1.409       .  A
C1492      C1504   1.444       .  S
C1493      C1494   1.403       .  A
C1494      H1509   1.085       .  S
C1495      C1496   1.401       .  A
C1495      C1500   1.408       .  A
C1496      H1511   1.085       .  S
C1496      C1497   1.398       .  A
C1497      C1498   1.419       .  A
C1497      C1501   1.445       .  S
C1498      C1499   1.409       .  A
C1499      H1512   1.085       .  S
C1499      C1500   1.400       .  A
C1500      C1502   1.444       .  S
C1501      N1505   1.158       .  T
C1502      N1506   1.157       .  T
C1503      N1508   1.157       .  T
C1504      N1507   1.157       .  T
C1513      C1514   1.409       .  A
C1513      C1518   1.396       .  A
C1514      C1519   1.475       .  S
C1514      C1515   1.399       .  A
C1515      H1534   1.085       .  S
C1515      C1516   1.399       .  A
C1516      C1517   1.417       .  A
C1516      C1528   1.444       .  S
C1517      C1518   1.403       .  A
C1518      H1533   1.085       .  S
C1519      C1524   1.410       .  A
C1520      H1535   1.085       .  S
C1520      C1521   1.394       .  A
C1521      C1522   1.413   1_565  A
C1521      C1525   1.445       .  S
C1523      H1536   1.084       .  S
C1523      C1524   1.401       .  A
C1524      C1526   1.443       .  S
C1525      N1529   1.157       .  T
C1526      N1530   1.157       .  T
C1527      N1532   1.157       .  T
C1528      N1531   1.157       .  T
C1537      C1538   1.410       .  A
C1537      C1542   1.403       .  A
C1537      C1551   1.443       .  S
C1538      C1543   1.482       .  S
C1538      C1539   1.399       .  A
C1539      H1558   1.086       .  S
C1539      C1540   1.393       .  A
C1540      C1541   1.420       .  A
C1540      C1552   1.446       .  S
C1541      C1542   1.407       .  A
C1542      H1557   1.084       .  S
C1543      C1544   1.404       .  A
C1543      C1548   1.412       .  A
C1544      H1559   1.085       .  S
C1544      C1545   1.397       .  A
C1545      C1546   1.409       .  A
C1545      C1549   1.444       .  S
C1546      C1547   1.403       .  A
C1547      H1560   1.085       .  S
C1547      C1548   1.400       .  A
C1548      C1550   1.444       .  S
C1549      N1553   1.157       .  T
C1550      N1554   1.157       .  T
C1551      N1556   1.157       .  T
C1552      N1555   1.158       .  T
C1561      C1562   1.414       .  A
C1561      C1566   1.404       .  A
C1561      C1575   1.443       .  S
C1562      C1567   1.493       .  S
C1562      C1563   1.404       .  A
C1563      H1582   1.085       .  S
C1563      C1564   1.398       .  A
C1564      C1565   1.415       .  A
C1564      C1576   1.445       .  S
C1565      C1566   1.405       .  A
C1566      H1581   1.085       .  S
C1567      C1568   1.407       .  A
C1567      C1572   1.415       .  A
C1568      H1583   1.084       .  S
C1568      C1569   1.401       .  A
C1569      C1570   1.409       .  A
C1569      C3229   1.443       .  S
C1570      C2693   1.488       .  S
C1570      C1571   1.402       .  A
C1571      H1584   1.085       .  S
C1571      C1572   1.400       .  A
C1572      C1574   1.444       .  S
C1573      C3225   1.443       .  S
C1573      N1577   1.157       .  T
C1574      N1578   1.157       .  T
C1575      N1580   1.157       .  T
C1576      N1579   1.158       .  T
C1585      C1586   1.411       .  A
C1585      C1590   1.395       .  A
C1585      C1599   1.445       .  S
C1586      C1591   1.486       .  S
C1586      C1587   1.407       .  A
C1587      H1606   1.084       .  S
C1587      C1588   1.403       .  A
C1588      C1589   1.408       .  A
C1588      C1600   1.443       .  S
C1589      C1590   1.402       .  A
C1590      H1605   1.085       .  S
C1591      C1592   1.403       .  A
C1591      C1596   1.411       .  A
C1592      H1607   1.085       .  S
C1592      C1593   1.400       .  A
C1593      C1594   1.414       .  A
C1593      C1597   1.443       .  S
C1594      C1595   1.407       .  A
C1595      H1608   1.085       .  S
C1595      C1596   1.400       .  A
C1596      C1598   1.446       .  S
C1597      N1601   1.157       .  T
C1598      N1602   1.158       .  T
C1599      N1604   1.157       .  T
C1600      N1603   1.157       .  T
C1609      C1610   1.412       .  A
C1609      C1614   1.397       .  A
C1609      C1623   1.445       .  S
C1610      C1615   1.481       .  S
C1610      C1611   1.402       .  A
C1611      H1630   1.085       .  S
C1611      C1612   1.401       .  A
C1612      C1613   1.415       .  A
C1612      C1624   1.445       .  S
C1613      C1614   1.402       .  A
C1614      H1629   1.085       .  S
C1615      C1616   1.402       .  A
C1615      C1620   1.412       .  A
C1616      H1631   1.085       .  S
C1616      C1617   1.397       .  A
C1617      C1618   1.409       .  A
C1617      C1621   1.444       .  S
C1618      C1619   1.402       .  A
C1619      H1632   1.085       .  S
C1619      C1620   1.400       .  A
C1620      C1622   1.444       .  S
C1621      N1625   1.157       .  T
C1622      N1626   1.157       .  T
C1623      N1628   1.157       .  T
C1624      N3283   1.157       .  T
N1627      C3280   1.157   1_455  T
C1633      C1634   1.411       .  A
C1633      C1638   1.406       .  A
C1633      C1647   1.443       .  S
C1634      C1639   1.486       .  S
C1634      C1635   1.401       .  A
C1635      H1654   1.085       .  S
C1635      C1636   1.395       .  A
C1636      C1637   1.414       .  A
C1636      C1648   1.445       .  S
C1637      C1638   1.406       .  A
C1638      H1653   1.084       .  S
C1639      C1640   1.405       .  A
C1639      C1644   1.412       .  A
C1640      H1655   1.084       .  S
C1640      C3297   1.401       .  A
C1641      C3296   1.401       .  A
C1641      C1642   1.411       .  A
C1641      C1645   1.444       .  S
C1642      C3299   1.402   1_655  A
C1643      H1656   1.085       .  S
C1643      C3298   1.402       .  A
C1643      C1644   1.399       .  A
C1644      C1646   1.444       .  S
C1645      N1649   1.157       .  T
C1646      N1650   1.157       .  T
C1647      N1652   1.157       .  T
C1648      N1651   1.157       .  T
C1657      N1658   1.361       .  A
C1657      N1662   1.359       .  A
C1657      C2465   1.480       .  S
N1658      C1659   1.361       .  A
C1659      N1660   1.356       .  A
C1659      C1788   1.464       .  S
N1660      C1661   1.354       .  A
C1661      N1662   1.355       .  A
C1661      C1681   1.461       .  S
C1663      N1664   1.358       .  A
C1663      N1668   1.359       .  A
C1663      C2441   1.477       .  S
N1664      C1665   1.356       .  A
C1665      N1666   1.356       .  A
C1665      C1731   1.461       .  S
N1666      C1667   1.356       .  A
C1667      N1668   1.357       .  A
C1667      C1766   1.461       .  S
C1669      N1670   1.354       .  A
C1669      N1674   1.361       .  A
C1669      C2422   1.483       .  S
N1670      C1671   1.352       .  A
C1671      N1672   1.359       .  A
C1671      C1701   1.463       .  S
N1672      C1673   1.361       .  A
C1673      N1674   1.361       .  A
C1673      C1758   1.472       .  S
C1675      N1676   1.360       .  A
C1675      N1680   1.359       .  A
C1675      C2393   1.483       .  S
N1676      C1677   1.359       .  A
C1677      N1678   1.360       .  A
C1677      C1773   1.469       .  S
N1678      C1679   1.359       .  A
C1679      N1680   1.356       .  A
N1682      N1699   1.323       .  A
N1682      N1704   1.320       .  A
N1682     Co1719   2.081       .  S
C1683      N2536   1.340   1_545  A
C1683      C2549   1.456       .  S
C1683      H1728   1.082       .  S
H1684      C1725   1.082       .  S
C1685      N1709   1.343       .  A
C1685      C2517   1.463       .  S
C1685      H1714   1.082       .  S
Co1686     N1704   2.082       .  S
Co1686     N1694   2.079       .  S
Co1686     N1726   2.079       .  S
Co1686     N1702   2.081       .  S
Co1686    Cl1730   2.463       .  S
N1687      C2553   1.335       .  A
N1687      N1694   1.320       .  A
N1687     Co1688   2.070       .  S
Co1688     N1691   2.086       .  S
Co1688     N1708   2.082       .  S
Co1688     N1695   2.075       .  S
Co1688    Cl1730   2.429       .  S
C1689      N1727   1.348       .  A
C1689      C2513   1.463   1_545  S
N1690      N1697   1.320       .  A
N1690      N1720   1.324       .  A
N1690     Co1723   2.082       .  S
N1691      N1709   1.320       .  A
N1691      N2555   1.324       .  A
N1692      C1721   1.348       .  A
N1692      N1702   1.324       .  A
H1693      C1718   1.082       .  S
N1694      N1715   1.325       .  A
N1695      N1713   1.319       .  A
N1695      N2528   1.323       .  A
C1696      N2528   1.346       .  A
C1696      C1724   1.457       .  S
C1696      C2582   1.459       .  S
N1697      C1712   1.340       .  A
N1697     Co1719   2.081       .  S
C1698      N1726   1.338       .  A
C1698      C1701   1.458       .  S
C1698      H1732   1.082       .  S
N1700      C2524   1.346       .  A
N1700      N2523   1.323   1_545  A
C1701      N1722   1.348       .  A
N1702      N1708   1.320       .  A
N1703      C1729   1.337       .  A
N1703      N1705   1.320       .  A
N1703     Co1719   2.073       .  S
N1704      C1718   1.341       .  A
N1705      N1733   1.325       .  A
N1705     Co1723   2.084       .  S
H1706      C1729   1.082       .  S
H1707      C1724   1.082       .  S
N1708      C2511   1.340       .  A
N1709     Co1723   2.090       .  S
N1710      N1722   1.326       .  A
N1710      N1726   1.319       .  A
N1710     Co1719   2.082       .  S
C1711      N2543   1.349   1_545  A
C1711      C1725   1.451       .  S
C1711      C1742   1.456       .  S
C1712      H1716   1.082       .  S
N1713      C1724   1.340       .  A
N1713     Co1723   2.078       .  S
N1715      C2539   1.349       .  A
C1717      N1733   1.350       .  A
C1717      C1729   1.452       .  S
C1717      C1736   1.457       .  S
Co1719    Cl1730   2.433       .  S
C1721      C2511   1.457       .  S
C1721      C2578   1.463       .  S
Co1723    Cl1730   2.466       .  S
C1725      N2515   1.335   1_545  A
N1727      N2519   1.324   1_545  A
C1734      N1735   1.357       .  A
C1734      N1739   1.363       .  A
C1734      C2369   1.485       .  S
N1735      C1736   1.351       .  A
C1736      N1737   1.352       .  A
N1737      C1738   1.354       .  A
C1738      N1739   1.361       .  A
C1738      C1808   1.461       .  S
C1740      N1741   1.359       .  A
C1740      N1745   1.361       .  A
C1740      C2345   1.476       .  S
N1743      C1744   1.353       .  A
C1744      N1745   1.356       .  A
C1744      C1798   1.459       .  S
C1746      N1747   1.360       .  A
C1746      N1751   1.359       .  A
C1746      C2326   1.488       .  S
N1747      C1748   1.356       .  A
C1748      N1749   1.356       .  A
C1748      C1778   1.461       .  S
N1749      C1750   1.355       .  A
C1750      N1751   1.356       .  A
C1750      C2549   1.462       .  S
C1752      N1753   1.357       .  A
C1752      N1757   1.361       .  A
C1752      C2297   1.480       .  S
N1753      C1754   1.354       .  A
C1754      N1755   1.357       .  A
C1754      C2524   1.459       .  S
N1755      C1756   1.357       .  A
C1756      N1757   1.359       .  A
C1756      C1794   1.466       .  S
C1758      N1776   1.350       .  A
C1758      C1795   1.460       .  S
N1759      N1776   1.326       .  A
N1759      N1781   1.321       .  A
N1759     Co1796   2.094       .  S
C1760      N1785   1.336       .  A
C1760      C1798   1.452       .  S
C1760      H1805   1.082       .  S
H1761      C1802   1.082       .  S
C1762      N1786   1.341       .  A
C1762      C1766   1.458       .  S
C1762      H1791   1.082       .  S
Co1763     N1781   2.086       .  S
Co1763     N1771   2.086       .  S
Co1763     N1803   2.084       .  S
Co1763     N1779   2.084       .  S
Co1763    Cl1807   2.475       .  S
N1764      C1802   1.338       .  A
N1764      N1771   1.321       .  A
N1764     Co1765   2.085       .  S
Co1765     N1768   2.080       .  S
Co1765     N1785   2.073       .  S
Co1765     N1772   2.091       .  S
Co1765    Cl1807   2.427       .  S
C1766      N1804   1.347       .  A
N1767      N1774   1.321       .  A
N1767      N1797   1.326       .  A
N1767     Co1800   2.082       .  S
N1768      N1786   1.320       .  A
N1768      N1804   1.323       .  A
N1769      C1798   1.350       .  A
N1769      N1779   1.326       .  A
H1770      C1795   1.082       .  S
N1771      N1792   1.326       .  A
N1772      N1790   1.320       .  A
N1772      N1777   1.325       .  A
C1773      N1777   1.349       .  A
C1773      C1801   1.461       .  S
N1774      C1789   1.336       .  A
N1774     Co1796   2.080       .  S
C1775      N1803   1.342       .  A
C1775      C1778   1.459       .  S
C1775      H1809   1.082       .  S
C1778      N1799   1.346       .  A
N1779      N1785   1.320       .  A
N1780      C1806   1.340       .  A
N1780      N1782   1.321       .  A
N1780     Co1796   2.087       .  S
N1781      C1795   1.343       .  A
N1782      N1810   1.326       .  A
N1782     Co1800   2.083       .  S
H1783      C1806   1.082       .  S
H1784      C1801   1.082       .  S
N1786     Co1800   2.079       .  S
N1787      N1799   1.322       .  A
N1787      N1803   1.320       .  A
N1787     Co1796   2.080       .  S
C1788      N1792   1.350       .  A
C1788      C1802   1.456       .  S
C1789      C1808   1.455       .  S
C1789      H1793   1.082       .  S
N1790      C1801   1.343       .  A
N1790     Co1800   2.088       .  S
C1794      N1810   1.350       .  A
C1794      C1806   1.456       .  S
Co1796    Cl1807   2.428       .  S
N1797      C1808   1.349       .  A
Co1800    Cl1807   2.474       .  S
N1811      C1816   1.356       .  A
N1811      C1815   1.356       .  A
N1811      H1843   1.036       .  S
N1812      C1819   1.349       .  A
N1812      C1820   1.350       .  A
N1813      C1818   1.348       .  A
N1813      C1817   1.347       .  A
N1813      H1844   1.038       .  S
N1814      C1821   1.347       .  A
N1814      C1822   1.351       .  A
C1815      C1823   1.387       .  A
C1815      C1831   1.422       .  A
C1816      C1832   1.422       .  A
C1816      C1824   1.388       .  A
C1817      C1825   1.388       .  A
C1817      C1834   1.408       .  A
C1818      C1833   1.406       .  A
C1818      C1826   1.387       .  A
C1819      C1831   1.413       .  A
C1819      C1827   1.387       .  A
C1820      C1834   1.409       .  A
C1820      C1828   1.384       .  A
C1821      C1829   1.388       .  A
C1821      C1832   1.412       .  A
C1822      C1830   1.383       .  A
C1822      C1833   1.407       .  A
C1823      H1835   1.082       .  S
C1823      C1824   1.375       .  A
C1824      H1836   1.081       .  S
C1825      H1837   1.083       .  S
C1825      C1826   1.374       .  A
C1826      H1838   1.083       .  S
C1827      H2667   1.082       .  S
C1827      C1828   1.378       .  A
C1828      H2668   1.082       .  S
C1829      H1841   1.082       .  S
C1829      C1830   1.377       .  A
C1830      H1842   1.082       .  S
C1831      C2249   1.494       .  S
C1832      C2278   1.487       .  S
C1833      C2417   1.482       .  S
C1834      C2350   1.481       .  S
H1839      C2655   1.082       .  S
H1840      C2656   1.082       .  S
N1845      C1850   1.354       .  A
N1845      C1849   1.355       .  A
N1845      H1877   1.035       .  S
N1846      C1853   1.350       .  A
N1846      C1854   1.351       .  A
N1847      C1852   1.351       .  A
N1847      C1851   1.348       .  A
N1847      H1878   1.036   1_556  S
N1848      C1855   1.346       .  A
N1848      C1856   1.349       .  A
C1849      C1857   1.388       .  A
C1849      C1865   1.420       .  A
C1850      C1866   1.421       .  A
C1850      C1858   1.387       .  A
C1851      C1859   1.386       .  A
C1851      C1868   1.408       .  A
C1852      C1867   1.411       .  A
C1852      C1860   1.389       .  A
C1853      C1865   1.414       .  A
C1854      C1868   1.409   1_554  A
C1855      C1863   1.388       .  A
C1855      C1866   1.410       .  A
C1856      C1864   1.384       .  A
C1856      C1867   1.406   1_554  A
C1857      H1869   1.081       .  S
C1857      C1858   1.374       .  A
C1858      H1870   1.082       .  S
C1859      H1871   1.083       .  S
C1859      C1860   1.370       .  A
C1860      H1872   1.082       .  S
C1861      H1873   1.082       .  S
C1861      C1862   1.376       .  A
C1862      H1874   1.082       .  S
C1863      H1875   1.082       .  S
C1863      C1864   1.376       .  A
C1864      H1876   1.082       .  S
C1866      C2374   1.485       .  S
C1867      C2206   1.481       .  S
N1879      C1884   1.354       .  A
N1879      C1883   1.355       .  A
N1879      H1911   1.032       .  S
N1880      C1887   1.350       .  A
N1880      C1888   1.352       .  A
N1881      C1886   1.351       .  A
N1881      C1885   1.353       .  A
N1881      H1912   1.030       .  S
N1882      C1889   1.348       .  A
N1882      C1890   1.349       .  A
C1883      C1891   1.389       .  A
C1883      C1899   1.422       .  A
C1884      C1900   1.420       .  A
C1884      C1892   1.387       .  A
C1885      C1893   1.389       .  A
C1885      C1902   1.419       .  A
C1886      C1901   1.416       .  A
C1886      C1894   1.387       .  A
C1887      C1899   1.415       .  A
C1888      C1902   1.414       .  A
C1889      C1897   1.387       .  A
C1889      C1900   1.410       .  A
C1890      C1898   1.385       .  A
C1890      C1901   1.407       .  A
C1891      H1903   1.081       .  S
C1891      C1892   1.371       .  A
C1892      H1904   1.082       .  S
C1893      H1905   1.080       .  S
C1893      C1894   1.367       .  A
C1894      H1906   1.082       .  S
C1895      H1907   1.082       .  S
C1895      C1896   1.375       .  A
C1896      H1908   1.082       .  S
C1897      H1909   1.082       .  S
C1897      C1898   1.373       .  A
C1898      H1910   1.082       .  S
C1899      C2470   1.488       .  S
C1900      C2321   1.486       .  S
C1901      C2153   1.480       .  S
C1902      C2177   1.488       .  S
N1913      C1918   1.355       .  A
N1913      C1917   1.354       .  A
N1913      H1945   1.036       .  S
N1914      C1921   1.347   1_554  A
N1914      C1922   1.349       .  A
N1915      C1920   1.351       .  A
N1915      C1919   1.352       .  A
N1915      H1946   1.038       .  S
N1916      C1923   1.349   1_554  A
N1916      C1924   1.351       .  A
C1917      C1925   1.387       .  A
C1917      C1933   1.419       .  A
C1918      C1934   1.419       .  A
C1918      C1926   1.388       .  A
C1919      C1927   1.388       .  A
C1919      C1936   1.413       .  A
C1920      C1935   1.411       .  A
C1920      C1928   1.386       .  A
C1921      C1933   1.410       .  A
C1921      C1929   1.388   1_556  A
C1922      C1936   1.406       .  A
C1922      C1930   1.385       .  A
C1923      C2759   1.387   1_556  A
C1923      C1934   1.412       .  A
C1924      C2760   1.384       .  A
C1924      C1935   1.409       .  A
C1925      H1937   1.082       .  S
C1925      C1926   1.374       .  A
C1926      H1938   1.082       .  S
C1927      H1939   1.082       .  S
C1927      C1928   1.372       .  A
C1928      H1940   1.083       .  S
C1929      H1941   1.082   1_554  S
C1929      C1930   1.375       .  A
C1930      H1942   1.082       .  S
C1931      H1943   1.082   1_554  S
C1931      C2751   1.387   1_544  A
C1931      C1932   1.375       .  A
C1932      H1944   1.082       .  S
C1932      C2752   1.384   1_545  A
C1933      C2129   1.488       .  S
C1934      C2110   1.486       .  S
C1935      C2302   1.486       .  S
C1936      C2446   1.481       .  S
C1947      N1948   1.362       .  A
C1947      N1952   1.359       .  A
C1947      C2134   1.487       .  S
N1948      C1949   1.360       .  A
C1949      N1950   1.357       .  A
N1950      C1951   1.354       .  A
C1951      N1952   1.354       .  A
C1951      C1983   1.462       .  S
C1953      N1954   1.362       .  A
C1953      N1958   1.357       .  A
C1953      C2230   1.477       .  S
N1954      C1955   1.359       .  A
C1955      N1956   1.355       .  A
C1955      C2088   1.461       .  S
N1956      C1957   1.352       .  A
C1957      N1958   1.352       .  A
C1957      C2013   1.455       .  S
C1959      N1960   1.359       .  A
C1959      N1964   1.361       .  A
C1959      C2105   1.481       .  S
N1960      C1961   1.355       .  A
C1961      N1962   1.356       .  A
C1961      C2023   1.465       .  S
N1962      C1963   1.357       .  A
C1963      N1964   1.360       .  A
C1963      C2068   1.465       .  S
C1965      N1966   1.353       .  A
C1965      N1970   1.358       .  A
C1965      C2201   1.472       .  S
N1966      C1967   1.354       .  A
C1967      N1968   1.360       .  A
C1967      C2003   1.463       .  S
N1968      C1969   1.361       .  A
C1969      N1970   1.359       .  A
C1969      C2048   1.468       .  S
C1971      N1972   1.359       .  A
C1971      N1976   1.356       .  A
C1971      C2158   1.471       .  S
N1972      C1973   1.358       .  A
C1973      N1974   1.357       .  A
C1973      C2084   1.463       .  S
N1974      C1975   1.356       .  A
C1975      N1976   1.353       .  A
C1975      C1998   1.458       .  S
C1977      N1978   1.360       .  A
C1977      N1982   1.359       .  A
C1977      C2254   1.486       .  S
N1978      C1979   1.357       .  A
C1979      N1980   1.359       .  A
C1979      C1991   1.466       .  S
N1980      C1981   1.359       .  A
C1981      N1982   1.358       .  A
C1981      C2063   1.465       .  S
C1983      N2001   1.350       .  A
C1983      C2020   1.456       .  S
N1984      N2001   1.325       .  A
N1984      N2006   1.320       .  A
N1984     Co2021   2.087       .  S
C1985      N2010   1.340       .  A
C1985      C2023   1.457       .  S
C1985      H2030   1.082       .  S
H1986      C2027   1.082       .  S
C1987      N2011   1.342       .  A
C1987      C1991   1.461       .  S
C1987      H2016   1.082       .  S
Co1988     N2006   2.078       .  S
Co1988     N1996   2.074       .  S
Co1988     N2028   2.075       .  S
Co1988     N2004   2.083       .  S
Co1988    Cl2032   2.463       .  S
N1989      C2027   1.337       .  A
N1989      N1996   1.319       .  A
N1989     Co1990   2.070       .  S
Co1990     N1993   2.085       .  S
Co1990     N2010   2.084       .  S
Co1990     N1997   2.072       .  S
Co1990    Cl2032   2.430       .  S
C1991      N2029   1.347       .  A
N1992      N1999   1.321       .  A
N1992      N2022   1.325       .  A
N1992     Co2025   2.085       .  S
N1993      N2011   1.320       .  A
N1993      N2029   1.324       .  A
N1994      C2023   1.350       .  A
N1994      N2004   1.325       .  A
H1995      C2020   1.082       .  S
N1996      N2017   1.323       .  A
N1997      N2015   1.320       .  A
N1997      N2002   1.322       .  A
C1998      N2002   1.345       .  A
C1998      C2026   1.459       .  S
N1999      C2014   1.339       .  A
N1999     Co2021   2.079       .  S
C2000      N2028   1.337       .  A
C2000      C2003   1.455       .  S
C2000      H2034   1.082       .  S
C2003      N2024   1.349       .  A
N2004      N2010   1.320       .  A
N2005      C2031   1.337       .  A
N2005      N2007   1.321       .  A
N2005     Co2021   2.079       .  S
N2006      C2020   1.339       .  A
N2007      N2035   1.326       .  A
N2007     Co2025   2.085       .  S
H2008      C2031   1.082       .  S
H2009      C2026   1.082       .  S
N2011     Co2025   2.087       .  S
N2012      N2024   1.327       .  A
N2012      N2028   1.320       .  A
N2012     Co2021   2.087       .  S
C2013      N2017   1.348       .  A
C2013      C2027   1.453       .  S
C2014      C2033   1.454       .  S
C2014      H2018   1.082       .  S
N2015      C2026   1.341       .  A
N2015     Co2025   2.084       .  S
C2019      N2035   1.349       .  A
C2019      C2031   1.454       .  S
C2019      C2046   1.460       .  S
Co2021    Cl2032   2.434       .  S
N2022      C2033   1.350       .  A
Co2025    Cl2032   2.468       .  S
C2033      C2038   1.463       .  S
C2036      N2037   1.358       .  A
C2036      N2041   1.363       .  A
C2036      C2182   1.485       .  S
N2037      C2038   1.355       .  A
C2038      N2039   1.356       .  A
N2039      C2040   1.356       .  A
C2040      N2041   1.361       .  A
C2040      C2056   1.469       .  S
C2042      N2043   1.362       .  A
C2042      N2047   1.361       .  A
C2042      C2273   1.481       .  S
N2043      C2044   1.359       .  A
C2044      N2045   1.353       .  A
C2044      C2098   1.461       .  S
N2045      C2046   1.352       .  A
C2046      N2047   1.355       .  A
C2048      N2066   1.349       .  A
C2048      C2085   1.458       .  S
N2049      N2066   1.326       .  A
N2049      N2071   1.320       .  A
N2049     Co2086   2.090       .  S
C2050      N2903   1.336   1_645  A
C2050      C2088   1.452       .  S
C2050      H2095   1.082       .  S
H2051      C2092   1.082       .  S
C2052      N2076   1.342       .  A
C2052      H2081   1.082       .  S
Co2053     N2071   2.082       .  S
Co2053     N2061   2.085       .  S
Co2053     N2093   2.088       .  S
Co2053     N2069   2.084       .  S
Co2053    Cl2097   2.474       .  S
N2054      N2061   1.321       .  A
Co2055     N2075   2.078       .  S
Co2055     N2062   2.088       .  S
C2056      N2094   1.351       .  A
N2057      N2064   1.321       .  A
N2057      N2087   1.326       .  A
N2057     Co2090   2.080       .  S
N2058      N2076   1.320       .  A
N2059      N2897   1.327   1_545  A
H2060      C2085   1.082       .  S
N2061      N2082   1.326       .  A
N2062      N2895   1.325   1_455  A
C2063      N2067   1.349       .  A
N2064      C2079   1.337       .  A
N2064     Co2086   2.081       .  S
C2065      N2921   1.344   1_545  A
C2065      C2068   1.460       .  S
C2065      H2099   1.082       .  S
N2067      N2890   1.325   1_645  A
C2068      N2089   1.348       .  A
N2069      N2887   1.327       .  A
N2070      C2924   1.340       .  A
N2070      N2072   1.320       .  A
N2070     Co2086   2.084       .  S
N2071      C2085   1.341       .  A
N2072      N2928   1.325       .  A
N2072     Co2090   2.080       .  S
H2073      C2096   1.082       .  S
H2074      C2091   1.082       .  S
N2075      C2878   1.335   1_455  A
N2076     Co2090   2.081       .  S
N2077      N2917   1.323       .  A
N2077      N2093   1.320       .  A
N2077     Co2086   2.085       .  S
C2078      N2082   1.349       .  A
C2079      C2098   1.455       .  S
C2079      H2083   1.082       .  S
N2080      C2919   1.341       .  A
N2080     Co2090   2.082       .  S
C2084      N2100   1.349       .  A
C2084      C2096   1.456       .  S
Co2086    Cl2097   2.429       .  S
N2087      C2098   1.348       .  A
N2089      N2905   1.323   1_545  A
Co2090    Cl2097   2.472       .  S
C2091      N2908   1.341   1_545  A
N2093      C2893   1.344       .  A
C2096      N2898   1.340   1_545  A
N2100      N2900   1.325   1_545  A
C2101      C2102   1.414       .  A
C2101      C2106   1.406       .  A
C2101      C2115   1.443       .  S
C2102      C2107   1.492       .  S
C2102      C2103   1.403       .  A
C2103      H2122   1.085       .  S
C2103      C2104   1.395       .  A
C2104      C2105   1.414       .  A
C2104      C2116   1.445       .  S
C2105      C2106   1.405       .  A
C2106      H2121   1.085       .  S
C2107      C2936   1.407       .  A
C2107      C2112   1.414       .  A
C2108      H2123   1.084       .  S
C2108      C2935   1.407       .  A
C2108      C2109   1.401       .  A
C2109      C2110   1.409       .  A
C2109      C2113   1.444       .  S
C2110      C2939   1.400       .  A
C2111      H2124   1.085       .  S
C2111      C2938   1.400   1_545  A
C2111      C2112   1.398       .  A
C2112      C2114   1.444       .  S
C2113      N2117   1.157       .  T
C2114      N2118   1.157       .  T
C2115      N2120   1.157       .  T
C2116      N2119   1.157       .  T
C2125      C2126   1.413       .  A
C2125      C2130   1.398       .  A
C2125      C2139   1.445       .  S
C2126      C2131   1.485       .  S
C2126      C2127   1.404       .  A
C2127      H2146   1.085       .  S
C2127      C2128   1.399       .  A
C2128      C2129   1.411       .  A
C2128      C2140   1.444       .  S
C2129      C2130   1.402       .  A
C2130      H2145   1.085       .  S
C2131      C2132   1.403       .  A
C2131      C2136   1.410       .  A
C2132      H2147   1.085       .  S
C2132      C2133   1.403       .  A
C2133      C2134   1.415       .  A
C2133      C2137   1.442   1_655  S
C2134      C2135   1.407       .  A
C2135      H2148   1.084       .  S
C2135      C2136   1.396       .  A
C2136      C2138   1.446       .  S
C2138      N2142   1.157       .  T
C2139      N2144   1.157       .  T
C2140      N2143   1.157       .  T
C2149      C2150   1.409       .  A
C2149      C2154   1.398       .  A
C2149      C2163   1.443       .  S
C2150      C2155   1.475       .  S
C2150      C2151   1.401       .  A
C2151      H2170   1.085       .  S
C2151      C2152   1.396       .  A
C2152      C2153   1.410       .  A
C2152      C2164   1.445       .  S
C2153      C2154   1.402       .  A
C2154      H2169   1.084       .  S
C2155      C2156   1.398       .  A
C2155      C2160   1.412       .  A
C2156      H2171   1.085       .  S
C2156      C2157   1.397       .  A
C2157      C2158   1.414       .  A
C2157      C2161   1.444       .  S
C2158      C2159   1.401       .  A
C2159      H2172   1.085       .  S
C2159      C2160   1.398       .  A
C2160      C2162   1.445       .  S
C2161      N2165   1.157       .  T
C2162      N2166   1.157       .  T
C2163      N2168   1.157       .  T
C2164      N2167   1.157       .  T
C2173      C2174   1.414   1_455  A
C2173      C2178   1.401       .  A
C2173      C2187   1.444       .  S
C2174      C2179   1.493       .  S
C2174      C2175   1.407       .  A
C2175      H2194   1.084       .  S
C2176      C2177   1.409       .  A
C2176      C2188   1.444       .  S
C2178      H2193   1.085       .  S
C2179      C2180   1.403       .  A
C2179      C2184   1.417   1_655  A
C2180      H2195   1.085       .  S
C2180      C2181   1.400       .  A
C2181      C2182   1.416       .  A
C2181      C2185   1.444       .  S
C2182      C2183   1.403       .  A
C2183      H2196   1.085   1_655  S
C2183      C2184   1.402   1_655  A
C2185      N2189   1.157       .  T
C2186      N2190   1.157       .  T
C2187      N2192   1.157       .  T
C2188      N2191   1.157       .  T
C2197      C2198   1.407       .  A
C2197      C2202   1.399       .  A
C2197      C2211   1.444       .  S
C2198      C2203   1.477       .  S
C2198      C2199   1.404       .  A
C2199      H2218   1.085       .  S
C2199      C2200   1.400       .  A
C2200      C2201   1.409       .  A
C2200      C2212   1.444       .  S
C2201      C2202   1.405       .  A
C2202      H2217   1.085       .  S
C2203      C2204   1.402       .  A
C2203      C2208   1.410       .  A
C2204      H2219   1.085       .  S
C2204      C2205   1.399       .  A
C2205      C2206   1.409       .  A
C2205      C2209   1.443       .  S
C2206      C2207   1.403       .  A
C2207      H2220   1.085       .  S
C2207      C2208   1.399       .  A
C2208      C2210   1.444       .  S
C2209      N2213   1.157       .  T
C2210      N2214   1.157       .  T
C2211      N2216   1.157       .  T
C2212      N2215   1.157       .  T
C2221      C2226   1.393       .  A
C2221      C2235   1.445       .  S
C2222      C2227   1.481       .  S
C2222      C2223   1.406       .  A
C2223      H2242   1.084       .  S
C2223      C2224   1.403       .  A
C2224      C2225   1.408       .  A
C2224      C2236   1.443       .  S
C2226      H2241   1.085       .  S
C2227      C2228   1.403       .  A
C2227      C2232   1.410       .  A
C2228      H2243   1.085       .  S
C2228      C2229   1.399       .  A
C2229      C2230   1.413       .  A
C2229      C2233   1.444       .  S
C2230      C2231   1.405       .  A
C2231      H2244   1.085       .  S
C2231      C2232   1.396       .  A
C2232      C2234   1.445       .  S
C2233      N3065   1.157       .  T
C2234      N2238   1.157       .  T
C2235      N2240   1.157       .  T
C2236      N2239   1.157       .  T
N2237      C3061   1.157       .  T
C2245      C3074   1.411       .  A
C2245      C2250   1.402       .  A
C2245      C2259   1.444       .  S
C2246      C2251   1.487       .  S
C2246      C3073   1.411   1_545  A
C2246      C2247   1.403       .  A
C2247      H2266   1.085       .  S
C2247      C2248   1.401       .  A
C2248      C3077   1.412       .  A
C2248      C2260   1.443       .  S
C2249      C3076   1.412       .  A
C2249      C2250   1.405       .  A
C2250      H2265   1.085       .  S
C2251      C2252   1.404       .  A
C2251      C2256   1.410       .  A
C2252      H2267   1.084       .  S
C2252      C2253   1.406       .  A
C2253      C2254   1.416       .  A
C2253      C2257   1.444       .  S
C2254      C2255   1.405       .  A
C2255      H2268   1.085       .  S
C2255      C2256   1.397       .  A
C2256      C2258   1.445       .  S
C2258      N2262   1.157       .  T
C2259      N2264   1.157       .  T
C2260      N2263   1.157       .  T
C2269      C2270   1.413       .  A
C2269      C2274   1.405       .  A
C2269      C2283   1.443       .  S
C2270      C2275   1.491       .  S
C2270      C2271   1.403       .  A
C2271      H2290   1.085       .  S
C2271      C2272   1.395       .  A
C2272      C2273   1.414       .  A
C2272      C2284   1.446       .  S
C2273      C2274   1.406       .  A
C2274      H2289   1.085       .  S
C2275      C2276   1.407       .  A
C2275      C2280   1.414       .  A
C2276      H2291   1.084       .  S
C2276      C2277   1.401       .  A
C2277      C2278   1.410       .  A
C2277      C2281   1.444       .  S
C2278      C2279   1.401       .  A
C2279      H2292   1.085       .  S
C2279      C2280   1.399       .  A
C2280      C2282   1.444       .  S
C2281      N2285   1.157       .  T
C2282      N2286   1.157       .  T
C2283      N2288   1.157       .  T
C2284      N2287   1.157       .  T
C2293      C2294   1.411   1_565  A
C2293      C2298   1.398   1_565  A
C2293      C3135   1.445       .  S
C2294      C2299   1.484       .  S
C2294      C2295   1.403       .  A
C2295      H2314   1.085       .  S
C2295      C2296   1.401       .  A
C2296      C2297   1.413       .  A
C2296      C2308   1.444       .  S
C2297      C2298   1.405       .  A
C2298      H2313   1.085   1_545  S
C2299      C2300   1.405       .  A
C2299      C2304   1.411       .  A
C2300      H2315   1.084   1_545  S
C2300      C3129   1.402   1_545  A
C2301      C3128   1.402       .  A
C2301      C2302   1.410       .  A
C2301      C2305   1.443       .  S
C2302      C3131   1.403       .  A
C2303      H2316   1.085       .  S
C2303      C3130   1.403   1_545  A
C2303      C2304   1.397       .  A
C2304      C2306   1.444       .  S
C2305      N2309   1.157       .  T
C2306      N2310   1.157       .  T
C2307      C3121   1.445       .  S
C2307      N2312   1.157       .  T
C2308      N2311   1.157       .  T
C2317      C2318   1.411       .  A
C2317      C2322   1.399       .  A
C2317      C2331   1.444       .  S
C2318      C2323   1.483       .  S
C2318      C2319   1.405       .  A
C2319      H2338   1.085       .  S
C2319      C2320   1.397       .  A
C2320      C2321   1.409       .  A
C2320      C2332   1.445       .  S
C2321      C2322   1.403       .  A
C2322      H2337   1.085       .  S
C2323      C2324   1.401       .  A
C2323      C2328   1.408       .  A
C2324      H2339   1.085       .  S
C2324      C2325   1.398       .  A
C2325      C2326   1.419       .  A
C2325      C2329   1.445       .  S
C2326      C2327   1.408       .  A
C2327      H2340   1.085       .  S
C2327      C2328   1.400       .  A
C2328      C2330   1.444       .  S
C2329      N2333   1.158       .  T
C2330      N2334   1.157       .  T
C2331      N2336   1.157   1_545  T
C2332      N2335   1.157       .  T
C2341      C2342   1.409       .  A
C2341      C2346   1.396       .  A
C2341      C3183   1.444       .  S
C2342      C2347   1.474       .  S
C2342      C2343   1.399       .  A
C2343      H2362   1.085       .  S
C2343      C2344   1.399       .  A
C2344      C2345   1.416       .  A
C2344      C2356   1.444       .  S
C2345      C2346   1.403       .  A
C2346      H2361   1.085       .  S
C2347      C3176   1.398   1_545  A
C2347      C2352   1.410       .  A
C2348      H2363   1.085       .  S
C2348      C3175   1.398       .  A
C2348      C2349   1.395       .  A
C2349      C2350   1.413       .  A
C2349      C2353   1.445       .  S
C2350      C3179   1.402       .  A
C2351      H2364   1.084       .  S
C2351      C3178   1.402       .  A
C2351      C2352   1.401       .  A
C2352      C2354   1.443       .  S
C2353      N2357   1.157       .  T
C2354      N2358   1.157       .  T
C2355      C3169   1.444       .  S
C2355      N2360   1.157       .  T
C2356      N2359   1.157   1_655  T
C2365      C2366   1.410       .  A
C2365      C2370   1.403       .  A
C2365      C2379   1.443       .  S
C2366      C2371   1.482       .  S
C2366      C2367   1.399       .  A
C2367      H2386   1.086       .  S
C2367      C2368   1.393       .  A
C2368      C2369   1.420       .  A
C2368      C2380   1.446       .  S
C2369      C2370   1.407       .  A
C2370      H2385   1.084       .  S
C2371      C2372   1.404       .  A
C2371      C2376   1.412       .  A
C2372      H2387   1.085       .  S
C2372      C2373   1.397       .  A
C2373      C2374   1.409       .  A
C2373      C2377   1.444       .  S
C2374      C2375   1.403       .  A
C2375      H2388   1.085       .  S
C2375      C2376   1.399       .  A
C2376      C2378   1.444       .  S
C2377      N2381   1.157       .  T
C2378      N2382   1.157       .  T
C2379      N2384   1.157       .  T
C2380      N2383   1.158       .  T
C2389      C2390   1.414       .  A
C2389      C2394   1.404       .  A
C2389      C2403   1.444       .  S
C2390      C2395   1.493       .  S
C2390      C2391   1.404       .  A
C2391      H2410   1.085   1_655  S
C2391      C2392   1.398       .  A
C2392      C2393   1.415       .  A
C2392      C2404   1.445   1_655  S
C2393      C2394   1.405       .  A
C2394      H2409   1.085       .  S
C2395      C2396   1.407       .  A
C2395      C2400   1.415       .  A
C2396      H2411   1.084       .  S
C2396      C2397   1.400       .  A
C2397      C2398   1.409       .  A
C2398      C2399   1.402       .  A
C2399      H2412   1.085   1_655  S
C2399      C2400   1.400       .  A
C2400      C2402   1.444   1_655  S
C2401      N2405   1.157       .  T
C2402      N2406   1.157       .  T
C2403      N2408   1.157       .  T
C2404      N2407   1.158       .  T
C2413      C2414   1.411       .  A
C2413      C2418   1.395       .  A
C2413      C2427   1.445       .  S
C2414      C2419   1.486       .  S
C2414      C2415   1.407       .  A
C2415      H2434   1.084       .  S
C2415      C2416   1.403       .  A
C2416      C2417   1.408       .  A
C2416      C2428   1.443       .  S
C2417      C2418   1.402       .  A
C2418      H2433   1.085       .  S
C2419      C2420   1.403       .  A
C2419      C2424   1.411       .  A
C2420      H2435   1.085       .  S
C2420      C2421   1.400       .  A
C2421      C2422   1.414       .  A
C2421      C2425   1.443       .  S
C2422      C2423   1.408       .  A
C2423      H2436   1.085       .  S
C2423      C2424   1.399       .  A
C2424      C2426   1.446       .  S
C2425      N2429   1.157       .  T
C2426      N2430   1.158       .  T
C2427      N2432   1.157       .  T
C2428      N2431   1.157       .  T
C2437      C2438   1.412       .  A
C2437      C2442   1.397       .  A
C2437      C2451   1.445       .  S
C2438      C2443   1.481       .  S
C2438      C2439   1.402       .  A
C2439      H2458   1.085       .  S
C2439      C2440   1.401       .  A
C2440      C2441   1.415       .  A
C2440      C2452   1.445       .  S
C2441      C2442   1.402       .  A
C2442      H2457   1.085       .  S
C2443      C2444   1.402       .  A
C2443      C2448   1.412       .  A
C2444      H2459   1.085       .  S
C2444      C2445   1.397       .  A
C2445      C2446   1.409       .  A
C2445      C2449   1.444       .  S
C2446      C2447   1.402       .  A
C2447      H2460   1.085       .  S
C2447      C2448   1.400       .  A
C2448      C2450   1.444       .  S
C2449      N2453   1.157       .  T
C2450      N2454   1.157       .  T
C2451      N2456   1.157       .  T
C2461      C2462   1.411       .  A
C2461      C2466   1.406       .  A
C2461      C2475   1.443       .  S
C2462      C2467   1.486       .  S
C2462      C2463   1.401       .  A
C2463      H2482   1.085   1_655  S
C2463      C2464   1.395       .  A
C2464      C2465   1.415       .  A
C2464      C2476   1.445   1_655  S
C2465      C2466   1.406       .  A
C2466      H2481   1.084       .  S
C2467      C2468   1.405       .  A
C2467      C2472   1.412       .  A
C2468      H2483   1.084       .  S
C2469      C2470   1.411       .  A
C2469      C2473   1.444       .  S
C2471      H2484   1.085       .  S
C2471      C2472   1.399   1_455  A
C2472      C2474   1.444       .  S
C2473      N2477   1.157       .  T
C2474      N2478   1.157   1_655  T
C2475      N2480   1.157       .  T
C2476      N2479   1.157       .  T
C2485      N2486   1.361       .  A
C2485      N2490   1.359       .  A
C2485      C3293   1.480       .  S
N2486      C2487   1.361       .  A
C2487      N2488   1.356       .  A
C2487      C2616   1.464       .  S
N2488      C2489   1.354       .  A
C2489      N2490   1.355       .  A
C2489      C2509   1.461       .  S
C2491      N2492   1.358       .  A
C2491      N2496   1.359       .  A
C2491      C3269   1.477       .  S
N2492      C2493   1.356       .  A
C2493      N2494   1.356       .  A
C2493      C2559   1.461       .  S
N2494      C2495   1.356       .  A
C2495      N2496   1.357       .  A
C2495      C2594   1.461       .  S
C2497      N2498   1.354       .  A
C2497      N2502   1.361       .  A
C2497      C3250   1.483       .  S
N2498      C2499   1.352       .  A
C2499      N2500   1.359       .  A
C2499      C2529   1.463       .  S
N2500      C2501   1.361       .  A
C2501      N2502   1.361       .  A
C2501      C2586   1.472       .  S
C2503      N2504   1.360       .  A
C2503      N2508   1.359       .  A
C2503      C3221   1.483       .  S
N2504      C2505   1.359       .  A
C2505      N2506   1.360       .  A
C2505      C2601   1.469       .  S
N2506      C2507   1.359       .  A
C2507      N2508   1.356       .  A
N2510      N2527   1.323       .  A
N2510      N2532   1.320       .  A
N2510     Co2547   2.081       .  S
C2511      H2556   1.082       .  S
H2512      C2553   1.082       .  S
C2513      N2537   1.343       .  A
C2513      H2542   1.082       .  S
Co2514     N2532   2.082       .  S
Co2514     N2522   2.079       .  S
Co2514     N2554   2.078       .  S
Co2514     N2530   2.081       .  S
Co2514    Cl2558   2.463       .  S
N2515      N2522   1.320       .  A
N2515     Co2516   2.070       .  S
Co2516     N2519   2.086       .  S
Co2516     N2536   2.081       .  S
Co2516     N2523   2.075       .  S
Co2516    Cl2558   2.429       .  S
C2517      N2555   1.348       .  A
N2518      N2525   1.320       .  A
N2518      N2548   1.324       .  A
N2518     Co2551   2.081       .  S
N2519      N2537   1.320       .  A
N2520      C2549   1.348   1_565  A
N2520      N2530   1.324       .  A
H2521      C2546   1.082       .  S
N2522      N2543   1.325       .  A
N2523      N2541   1.319       .  A
C2524      C2552   1.457   1_545  S
N2525      C2540   1.340       .  A
N2525     Co2547   2.081       .  S
C2526      N2554   1.338       .  A
C2526      C2529   1.458       .  S
C2526      H2560   1.082       .  S
C2529      N2550   1.348       .  A
N2530      N2536   1.320       .  A
N2531      C2557   1.337       .  A
N2531      N2533   1.320       .  A
N2531     Co2547   2.073       .  S
N2532      C2546   1.341       .  A
N2533      N2561   1.325       .  A
N2533     Co2551   2.084       .  S
H2534      C2557   1.082       .  S
H2535      C2552   1.082       .  S
N2537     Co2551   2.090       .  S
N2538      N2550   1.326       .  A
N2538      N2554   1.319       .  A
N2538     Co2547   2.083       .  S
C2539      C2553   1.452       .  S
C2539      C2570   1.456       .  S
C2540      H2544   1.082       .  S
N2541      C2552   1.340       .  A
N2541     Co2551   2.078       .  S
C2545      N2561   1.349       .  A
C2545      C2557   1.452       .  S
C2545      C2564   1.457       .  S
Co2547    Cl2558   2.433       .  S
Co2551    Cl2558   2.466       .  S
C2562      N2563   1.357       .  A
C2562      N2567   1.363       .  A
C2562      C3197   1.485       .  S
N2563      C2564   1.351       .  A
C2564      N2565   1.352       .  A
N2565      C2566   1.354       .  A
C2566      N2567   1.361       .  A
C2566      C2636   1.461       .  S
C2568      N2569   1.359       .  A
C2568      N2573   1.361       .  A
C2568      C3173   1.477       .  S
N2571      C2572   1.353       .  A
C2572      N2573   1.356       .  A
C2572      C2626   1.459       .  S
C2574      N2575   1.360       .  A
C2574      N2579   1.359       .  A
C2574      C3154   1.488       .  S
N2575      C2576   1.356       .  A
C2576      N2577   1.356       .  A
C2576      C2606   1.461       .  S
N2577      C2578   1.355       .  A
C2578      N2579   1.356       .  A
C2580      N2581   1.357       .  A
C2580      N2585   1.360       .  A
C2580      C3125   1.480       .  S
N2581      C2582   1.354       .  A
C2582      N2583   1.357       .  A
N2583      C2584   1.357       .  A
C2584      N2585   1.359       .  A
C2584      C2622   1.466       .  S
C2586      N2604   1.350       .  A
C2586      C2623   1.460       .  S
N2587      N2604   1.326       .  A
N2587      N2609   1.321       .  A
N2587     Co2624   2.094       .  S
C2588      N2613   1.336       .  A
C2588      C2626   1.452       .  S
C2588      H2633   1.082       .  S
H2589      C2630   1.082       .  S
C2590      N2614   1.341       .  A
C2590      C2594   1.457       .  S
C2590      H2619   1.082       .  S
Co2591     N2609   2.086       .  S
Co2591     N2599   2.085       .  S
Co2591     N2631   2.084       .  S
Co2591     N2607   2.084       .  S
Co2591    Cl2635   2.475       .  S
N2592      C2630   1.338       .  A
N2592      N2599   1.321       .  A
N2592     Co2593   2.085       .  S
Co2593     N2596   2.081       .  S
Co2593     N2613   2.073       .  S
Co2593     N2600   2.092       .  S
Co2593    Cl2635   2.427       .  S
C2594      N2632   1.347       .  A
N2595      N2602   1.321       .  A
N2595      N2625   1.326       .  A
N2595     Co2628   2.082       .  S
N2596      N2614   1.320       .  A
N2596      N2632   1.323       .  A
N2597      C2626   1.350       .  A
N2597      N2607   1.326       .  A
H2598      C2623   1.082       .  S
N2599      N2620   1.326       .  A
N2600      N2618   1.320       .  A
N2600      N2605   1.325       .  A
C2601      N2605   1.349       .  A
C2601      C2629   1.461       .  S
N2602      C2617   1.336       .  A
N2602     Co2624   2.079       .  S
C2603      N2631   1.342       .  A
C2603      C2606   1.459       .  S
C2603      H2637   1.082       .  S
C2606      N2627   1.346       .  A
N2607      N2613   1.320       .  A
N2608      C2634   1.340       .  A
N2608      N2610   1.321       .  A
N2608     Co2624   2.086       .  S
N2609      C2623   1.343       .  A
N2610      N2638   1.325       .  A
N2610     Co2628   2.083       .  S
H2611      C2634   1.082       .  S
H2612      C2629   1.082       .  S
N2614     Co2628   2.079       .  S
N2615      N2627   1.322       .  A
N2615      N2631   1.320       .  A
N2615     Co2624   2.079       .  S
C2616      N2620   1.350       .  A
C2616      C2630   1.456       .  S
C2617      C2636   1.455       .  S
C2617      H2621   1.082       .  S
N2618      C2629   1.343       .  A
N2618     Co2628   2.088       .  S
C2622      N2638   1.350       .  A
C2622      C2634   1.456       .  S
Co2624    Cl2635   2.428       .  S
N2625      C2636   1.349       .  A
Co2628    Cl2635   2.474       .  S
N2639      C2644   1.356       .  A
N2639      C2643   1.356       .  A
N2639      H2671   1.036       .  S
N2640      C2647   1.349       .  A
N2640      C2648   1.350       .  A
N2641      C2646   1.348       .  A
N2641      C2645   1.347       .  A
N2641      H2672   1.038       .  S
N2642      C2649   1.347       .  A
N2642      C2650   1.351       .  A
C2643      C2651   1.387       .  A
C2643      C2659   1.422       .  A
C2644      C2660   1.422       .  A
C2644      C2652   1.388       .  A
C2645      C2653   1.388       .  A
C2645      C2662   1.407       .  A
C2646      C2661   1.406       .  A
C2646      C2654   1.387       .  A
C2647      C2659   1.413       .  A
C2647      C2655   1.387   1_565  A
C2648      C2662   1.408       .  A
C2648      C2656   1.384   1_565  A
C2649      C2657   1.388       .  A
C2649      C2660   1.412       .  A
C2650      C2658   1.383       .  A
C2650      C2661   1.407       .  A
C2651      H2663   1.082       .  S
C2651      C2652   1.375       .  A
C2652      H2664   1.081       .  S
C2653      H2665   1.083   1_565  S
C2653      C2654   1.374       .  A
C2654      H2666   1.083       .  S
C2655      C2656   1.378       .  A
C2657      H2669   1.082       .  S
C2657      C2658   1.377       .  A
C2658      H2670   1.082       .  S
C2659      C3077   1.494   1_565  S
C2660      C3106   1.487       .  S
C2661      C3245   1.482       .  S
C2662      C3178   1.480   1_565  S
N2673      C2678   1.354       .  A
N2673      C2677   1.355       .  A
N2673      H2705   1.035       .  S
N2674      C2681   1.349       .  A
N2674      C2682   1.351       .  A
N2675      C2680   1.351       .  A
N2675      C2679   1.348       .  A
N2675      H2706   1.036   1_556  S
N2676      C2683   1.346       .  A
N2676      C2684   1.349       .  A
C2677      C2685   1.388       .  A
C2677      C2693   1.420       .  A
C2678      C2694   1.421       .  A
C2678      C2686   1.387       .  A
C2679      C2687   1.386       .  A
C2679      C2696   1.408       .  A
C2680      C2695   1.411       .  A
C2680      C2688   1.389       .  A
C2681      C2693   1.414       .  A
C2682      C2696   1.409   1_554  A
C2683      C2691   1.388       .  A
C2683      C2694   1.410       .  A
C2684      C2692   1.384       .  A
C2684      C2695   1.406   1_554  A
C2685      H2697   1.081       .  S
C2685      C2686   1.374       .  A
C2686      H2698   1.082       .  S
C2687      H2699   1.083       .  S
C2687      C2688   1.370       .  A
C2688      H2700   1.082       .  S
C2689      H2701   1.082       .  S
C2689      C2690   1.376       .  A
C2690      H2702   1.082       .  S
C2691      H2703   1.082       .  S
C2691      C2692   1.376       .  A
C2692      H2704   1.082       .  S
C2694      C3202   1.485       .  S
C2695      C3034   1.481       .  S
N2707      C2712   1.354       .  A
N2707      C2711   1.354       .  A
N2707      H2739   1.032       .  S
N2708      C2715   1.350       .  A
N2708      C2716   1.352       .  A
N2709      C2714   1.351       .  A
N2709      C2713   1.353       .  A
N2709      H2740   1.031       .  S
N2710      C2717   1.348       .  A
N2710      C2718   1.349       .  A
C2711      C2719   1.389       .  A
C2711      C2727   1.422       .  A
C2712      C2728   1.420       .  A
C2712      C2720   1.387       .  A
C2713      C2721   1.389       .  A
C2713      C2730   1.419       .  A
C2714      C2729   1.416       .  A
C2714      C2722   1.387       .  A
C2715      C2727   1.415       .  A
C2716      C2730   1.414       .  A
C2717      C2725   1.387       .  A
C2717      C2728   1.410       .  A
C2718      C2726   1.385       .  A
C2718      C2729   1.407       .  A
C2719      H2731   1.081       .  S
C2719      C2720   1.371       .  A
C2720      H2732   1.082       .  S
C2721      H2733   1.080       .  S
C2721      C2722   1.367       .  A
C2722      H2734   1.082       .  S
C2723      H2735   1.082       .  S
C2723      C2724   1.375       .  A
C2724      H2736   1.082       .  S
C2725      H2737   1.082       .  S
C2725      C2726   1.374       .  A
C2726      H2738   1.082       .  S
C2727      C3298   1.488       .  S
C2728      C3149   1.486       .  S
C2729      C2981   1.479       .  S
C2730      C3005   1.488       .  S
N2741      C2746   1.355       .  A
N2741      C2745   1.354       .  A
N2741      H2773   1.036       .  S
N2742      C2749   1.347   1_554  A
N2742      C2750   1.349       .  A
N2743      C2748   1.351       .  A
N2743      C2747   1.352       .  A
N2743      H2774   1.037       .  S
N2744      C2751   1.349   1_554  A
N2744      C2752   1.351       .  A
C2745      C2753   1.387       .  A
C2745      C2761   1.420       .  A
C2746      C2762   1.419       .  A
C2746      C2754   1.388       .  A
C2747      C2755   1.388       .  A
C2747      C2764   1.413       .  A
C2748      C2763   1.411       .  A
C2748      C2756   1.387       .  A
C2749      C2761   1.411       .  A
C2749      C2757   1.388   1_556  A
C2750      C2764   1.406       .  A
C2750      C2758   1.385       .  A
C2751      C2762   1.412       .  A
C2752      C2763   1.409       .  A
C2753      H2765   1.082       .  S
C2753      C2754   1.374       .  A
C2754      H2766   1.082       .  S
C2755      H2767   1.082       .  S
C2755      C2756   1.372       .  A
C2756      H2768   1.083       .  S
C2757      H2769   1.082   1_554  S
C2757      C2758   1.375       .  A
C2758      H2770   1.082       .  S
C2759      H2771   1.082   1_554  S
C2759      C2760   1.375       .  A
C2760      H2772   1.082       .  S
C2761      C2957   1.488       .  S
C2762      C2938   1.486       .  S
C2763      C3130   1.486       .  S
C2764      C3274   1.481       .  S
C2775      N2776   1.362       .  A
C2775      N2780   1.359       .  A
C2775      C2962   1.487       .  S
N2776      C2777   1.360       .  A
C2777      N2778   1.357       .  A
N2778      C2779   1.354       .  A
C2779      N2780   1.354       .  A
C2779      C2811   1.462       .  S
C2781      N2782   1.362       .  A
C2781      N2786   1.357       .  A
C2781      C3058   1.477       .  S
N2782      C2783   1.359       .  A
C2783      N2784   1.355       .  A
C2783      C2916   1.461       .  S
N2784      C2785   1.352       .  A
C2785      N2786   1.352       .  A
C2785      C2841   1.455       .  S
C2787      N2788   1.359       .  A
C2787      N2792   1.361       .  A
C2787      C2933   1.481       .  S
N2788      C2789   1.356       .  A
C2789      N2790   1.356       .  A
C2789      C2851   1.465       .  S
N2790      C2791   1.357       .  A
C2791      N2792   1.360       .  A
C2791      C2896   1.465       .  S
C2793      N2794   1.353       .  A
C2793      N2798   1.358       .  A
C2793      C3029   1.472       .  S
N2794      C2795   1.354       .  A
C2795      N2796   1.360       .  A
C2795      C2831   1.463       .  S
N2796      C2797   1.361       .  A
C2797      N2798   1.359       .  A
C2797      C2876   1.468       .  S
C2799      N2800   1.359       .  A
C2799      N2804   1.356       .  A
C2799      C2986   1.471       .  S
N2800      C2801   1.358       .  A
C2801      N2802   1.357       .  A
C2801      C2912   1.463       .  S
N2802      C2803   1.356       .  A
C2803      N2804   1.353       .  A
C2803      C2826   1.458       .  S
C2805      N2806   1.360       .  A
C2805      N2810   1.359       .  A
C2805      C3082   1.486       .  S
N2806      C2807   1.357       .  A
C2807      N2808   1.359       .  A
C2807      C2819   1.466       .  S
N2808      C2809   1.359       .  A
C2809      N2810   1.358       .  A
C2809      C2891   1.465       .  S
C2811      N2829   1.350       .  A
C2811      C2848   1.456       .  S
N2812      N2829   1.325       .  A
N2812      N2834   1.320       .  A
N2812     Co2849   2.087       .  S
C2813      N2838   1.340       .  A
C2813      C2851   1.457       .  S
C2813      H2858   1.082       .  S
H2814      C2855   1.082       .  S
C2815      N2839   1.342       .  A
C2815      C2819   1.461       .  S
C2815      H2844   1.082       .  S
Co2816     N2834   2.078       .  S
Co2816     N2824   2.075       .  S
Co2816     N2856   2.075       .  S
Co2816     N2832   2.083       .  S
Co2816    Cl2860   2.463       .  S
N2817      C2855   1.337       .  A
N2817      N2824   1.319       .  A
N2817     Co2818   2.070       .  S
Co2818     N2821   2.085       .  S
Co2818     N2838   2.084       .  S
Co2818     N2825   2.072       .  S
Co2818    Cl2860   2.430       .  S
C2819      N2857   1.347       .  A
N2820      N2827   1.321       .  A
N2820      N2850   1.325       .  A
N2820     Co2853   2.085       .  S
N2821      N2839   1.320       .  A
N2821      N2857   1.324       .  A
N2822      C2851   1.350       .  A
N2822      N2832   1.325       .  A
H2823      C2848   1.082       .  S
N2824      N2845   1.323       .  A
N2825      N2843   1.320       .  A
N2825      N2830   1.322       .  A
C2826      N2830   1.345       .  A
C2826      C2854   1.459       .  S
N2827      C2842   1.339       .  A
N2827     Co2849   2.079       .  S
C2828      N2856   1.337       .  A
C2828      C2831   1.456       .  S
C2828      H2862   1.082       .  S
C2831      N2852   1.349       .  A
N2832      N2838   1.320       .  A
N2833      C2859   1.337       .  A
N2833      N2835   1.321       .  A
N2833     Co2849   2.079       .  S
N2834      C2848   1.339       .  A
N2835      N2863   1.326       .  A
N2835     Co2853   2.085       .  S
H2836      C2859   1.082       .  S
H2837      C2854   1.082       .  S
N2839     Co2853   2.088       .  S
N2840      N2852   1.327       .  A
N2840      N2856   1.320       .  A
N2840     Co2849   2.086       .  S
C2841      N2845   1.348       .  A
C2841      C2855   1.453       .  S
C2842      C2861   1.454       .  S
C2842      H2846   1.082       .  S
N2843      C2854   1.341       .  A
N2843     Co2853   2.083       .  S
C2847      N2863   1.349       .  A
C2847      C2859   1.454       .  S
C2847      C2874   1.460       .  S
Co2849    Cl2860   2.434       .  S
N2850      C2861   1.350       .  A
Co2853    Cl2860   2.467       .  S
C2861      C2866   1.463       .  S
C2864      N2865   1.358       .  A
C2864      N2869   1.363       .  A
C2864      C3010   1.485       .  S
N2865      C2866   1.355       .  A
C2866      N2867   1.356       .  A
N2867      C2868   1.357       .  A
C2868      N2869   1.361       .  A
C2868      C2884   1.469       .  S
C2870      N2871   1.362       .  A
C2870      N2875   1.360       .  A
C2870      C3101   1.481       .  S
N2871      C2872   1.359       .  A
C2872      N2873   1.353       .  A
C2872      C2926   1.461       .  S
N2873      C2874   1.352       .  A
C2874      N2875   1.355       .  A
C2876      N2894   1.349       .  A
C2876      C2913   1.459       .  S
N2877      N2894   1.326       .  A
N2877      N2899   1.320       .  A
N2877     Co2914   2.090       .  S
C2878      C2916   1.452       .  S
C2878      H2923   1.082       .  S
H2879      C2920   1.082       .  S
C2880      N2904   1.342       .  A
C2880      H2909   1.082       .  S
Co2881     N2899   2.083       .  S
Co2881     N2889   2.085       .  S
Co2881     N2921   2.088       .  S
Co2881     N2897   2.084       .  S
Co2881    Cl2925   2.474       .  S
N2882      N2889   1.321       .  A
Co2883     N2903   2.079       .  S
Co2883     N2890   2.088       .  S
C2884      N2922   1.351       .  A
N2885      N2892   1.321       .  A
N2885      N2915   1.326       .  A
N2885     Co2918   2.080       .  S
N2886      N2904   1.320       .  A
H2888      C2913   1.082       .  S
N2889      N2910   1.326       .  A
C2891      N2895   1.349       .  A
N2892      C2907   1.337       .  A
N2892     Co2914   2.082       .  S
C2893      C2896   1.461       .  S
C2893      H2927   1.082       .  S
C2896      N2917   1.348       .  A
N2898      N2900   1.321       .  A
N2898     Co2914   2.084       .  S
N2899      C2913   1.341       .  A
N2900     Co2918   2.080       .  S
H2901      C2924   1.082       .  S
H2902      C2919   1.082       .  S
N2904     Co2918   2.081       .  S
N2905      N2921   1.320       .  A
N2905     Co2914   2.085       .  S
C2906      N2910   1.349       .  A
C2907      C2926   1.455       .  S
C2907      H2911   1.082       .  S
N2908     Co2918   2.082       .  S
C2912      N2928   1.349       .  A
C2912      C2924   1.456       .  S
Co2914    Cl2925   2.429       .  S
N2915      C2926   1.348       .  A
Co2918    Cl2925   2.472       .  S
C2929      C2930   1.414       .  A
C2929      C2934   1.406       .  A
C2929      C2943   1.443       .  S
C2930      C2935   1.492       .  S
C2930      C2931   1.403       .  A
C2931      H2950   1.085       .  S
C2931      C2932   1.395       .  A
C2932      C2933   1.414       .  A
C2932      C2944   1.445       .  S
C2933      C2934   1.405       .  A
C2934      H2949   1.085       .  S
C2935      C2940   1.415       .  A
C2936      H2951   1.084   1_545  S
C2936      C2937   1.401   1_545  A
C2937      C2938   1.409       .  A
C2937      C2941   1.444       .  S
C2939      H2952   1.085       .  S
C2939      C2940   1.398       .  A
C2940      C2942   1.444       .  S
C2941      N2945   1.157       .  T
C2942      N2946   1.157       .  T
C2943      N2948   1.157       .  T
C2944      N2947   1.157       .  T
C2953      C2954   1.413       .  A
C2953      C2958   1.398       .  A
C2953      C2967   1.445       .  S
C2954      C2959   1.485       .  S
C2954      C2955   1.404       .  A
C2955      H2974   1.085       .  S
C2955      C2956   1.399       .  A
C2956      C2957   1.411       .  A
C2956      C2968   1.444       .  S
C2957      C2958   1.402       .  A
C2958      H2973   1.085       .  S
C2959      C2960   1.403       .  A
C2959      C2964   1.410       .  A
C2960      H2975   1.085       .  S
C2960      C2961   1.403       .  A
C2961      C2962   1.415       .  A
C2961      C2965   1.442   1_655  S
C2962      C2963   1.407       .  A
C2963      H2976   1.084       .  S
C2963      C2964   1.396       .  A
C2964      C2966   1.446       .  S
C2966      N2970   1.157       .  T
C2967      N2972   1.157       .  T
C2968      N2971   1.157       .  T
C2977      C2978   1.409       .  A
C2977      C2982   1.398       .  A
C2977      C2991   1.443       .  S
C2978      C2983   1.474       .  S
C2978      C2979   1.401       .  A
C2979      H2998   1.085       .  S
C2979      C2980   1.396       .  A
C2980      C2981   1.410       .  A
C2980      C2992   1.445       .  S
C2981      C2982   1.402       .  A
C2982      H2997   1.085       .  S
C2983      C2984   1.398       .  A
C2983      C2988   1.412       .  A
C2984      H2999   1.085       .  S
C2984      C2985   1.397       .  A
C2985      C2986   1.414       .  A
C2985      C2989   1.444       .  S
C2986      C2987   1.401       .  A
C2987      H3000   1.085       .  S
C2987      C2988   1.398       .  A
C2988      C2990   1.445       .  S
C2989      N2993   1.157       .  T
C2990      N2994   1.157       .  T
C2991      N2996   1.157       .  T
C2992      N2995   1.157       .  T
C3001      C3002   1.414   1_455  A
C3001      C3006   1.401       .  A
C3001      C3015   1.444       .  S
C3002      C3007   1.494       .  S
C3002      C3003   1.407       .  A
C3003      H3022   1.084       .  S
C3004      C3005   1.409       .  A
C3004      C3016   1.444       .  S
C3006      H3021   1.085       .  S
C3007      C3008   1.403       .  A
C3007      C3012   1.417   1_655  A
C3008      H3023   1.085       .  S
C3008      C3009   1.400       .  A
C3009      C3010   1.416       .  A
C3009      C3013   1.444       .  S
C3010      C3011   1.403       .  A
C3011      H3024   1.085   1_655  S
C3011      C3012   1.402   1_655  A
C3013      N3017   1.157       .  T
C3014      N3018   1.157       .  T
C3015      N3020   1.157       .  T
C3016      N3019   1.157       .  T
C3025      C3026   1.407       .  A
C3025      C3030   1.399       .  A
C3025      C3039   1.444       .  S
C3026      C3031   1.477       .  S
C3026      C3027   1.404       .  A
C3027      H3046   1.085       .  S
C3027      C3028   1.400       .  A
C3028      C3029   1.409       .  A
C3028      C3040   1.444       .  S
C3029      C3030   1.405       .  A
C3030      H3045   1.085       .  S
C3031      C3032   1.402       .  A
C3031      C3036   1.410       .  A
C3032      H3047   1.085       .  S
C3032      C3033   1.399       .  A
C3033      C3034   1.409       .  A
C3033      C3037   1.443       .  S
C3034      C3035   1.403       .  A
C3035      H3048   1.085       .  S
C3035      C3036   1.399       .  A
C3036      C3038   1.445       .  S
C3037      N3041   1.157       .  T
C3038      N3042   1.157       .  T
C3039      N3044   1.157       .  T
C3040      N3043   1.157       .  T
C3049      C3054   1.393       .  A
C3049      C3063   1.445       .  S
C3050      C3055   1.481       .  S
C3050      C3051   1.406       .  A
C3051      H3070   1.084       .  S
C3051      C3052   1.402       .  A
C3052      C3053   1.408       .  A
C3052      C3064   1.443       .  S
C3054      H3069   1.085       .  S
C3055      C3056   1.403       .  A
C3055      C3060   1.410       .  A
C3056      H3071   1.085       .  S
C3056      C3057   1.399       .  A
C3057      C3058   1.413       .  A
C3057      C3061   1.444       .  S
C3058      C3059   1.405       .  A
C3059      H3072   1.085       .  S
C3059      C3060   1.396       .  A
C3060      C3062   1.445       .  S
C3062      N3066   1.157       .  T
C3063      N3068   1.157       .  T
C3064      N3067   1.157       .  T
C3073      C3078   1.402       .  A
C3073      C3087   1.444       .  S
C3074      C3079   1.487       .  S
C3074      C3075   1.403       .  A
C3075      H3094   1.085       .  S
C3075      C3076   1.401       .  A
C3076      C3088   1.443       .  S
C3077      C3078   1.405   1_545  A
C3078      H3093   1.085       .  S
C3079      C3080   1.404       .  A
C3079      C3084   1.410       .  A
C3080      H3095   1.084       .  S
C3080      C3081   1.406       .  A
C3081      C3082   1.416       .  A
C3081      C3085   1.444       .  S
C3082      C3083   1.405       .  A
C3083      H3096   1.085       .  S
C3083      C3084   1.397       .  A
C3084      C3086   1.445       .  S
C3086      N3090   1.157       .  T
C3087      N3092   1.157       .  T
C3088      N3091   1.157       .  T
C3097      C3098   1.413       .  A
C3097      C3102   1.405       .  A
C3097      C3111   1.443       .  S
C3098      C3103   1.491       .  S
C3098      C3099   1.403       .  A
C3099      H3118   1.085       .  S
C3099      C3100   1.395       .  A
C3100      C3101   1.414       .  A
C3100      C3112   1.446       .  S
C3101      C3102   1.406       .  A
C3102      H3117   1.085       .  S
C3103      C3104   1.407       .  A
C3103      C3108   1.414       .  A
C3104      H3119   1.084       .  S
C3104      C3105   1.401       .  A
C3105      C3106   1.410       .  A
C3105      C3109   1.444       .  S
C3106      C3107   1.401       .  A
C3107      H3120   1.085       .  S
C3107      C3108   1.399       .  A
C3108      C3110   1.444       .  S
C3109      N3113   1.157       .  T
C3110      N3114   1.157       .  T
C3111      N3116   1.157       .  T
C3112      N3115   1.157       .  T
C3121      C3122   1.411       .  A
C3121      C3126   1.398       .  A
C3122      C3127   1.484       .  S
C3122      C3123   1.403       .  A
C3123      H3142   1.085       .  S
C3123      C3124   1.401       .  A
C3124      C3125   1.414       .  A
C3124      C3136   1.444       .  S
C3125      C3126   1.405       .  A
C3126      H3141   1.085       .  S
C3127      C3128   1.405       .  A
C3127      C3132   1.411       .  A
C3128      H3143   1.084       .  S
C3129      C3130   1.410       .  A
C3129      C3133   1.443       .  S
C3131      H3144   1.085       .  S
C3131      C3132   1.397       .  A
C3132      C3134   1.445       .  S
C3133      N3137   1.157       .  T
C3134      N3138   1.157       .  T
C3135      N3140   1.157       .  T
C3136      N3139   1.157       .  T
C3145      C3146   1.411       .  A
C3145      C3150   1.400       .  A
C3145      C3159   1.444       .  S
C3146      C3151   1.484       .  S
C3146      C3147   1.405       .  A
C3147      H3166   1.085       .  S
C3147      C3148   1.397       .  A
C3148      C3149   1.409       .  A
C3148      C3160   1.444       .  S
C3149      C3150   1.403       .  A
C3150      H3165   1.085       .  S
C3151      C3152   1.401       .  A
C3151      C3156   1.408       .  A
C3152      H3167   1.085       .  S
C3152      C3153   1.398       .  A
C3153      C3154   1.419       .  A
C3153      C3157   1.445       .  S
C3154      C3155   1.409       .  A
C3155      H3168   1.085       .  S
C3155      C3156   1.400       .  A
C3156      C3158   1.444       .  S
C3157      N3161   1.158       .  T
C3158      N3162   1.157       .  T
C3159      N3164   1.157       .  T
C3160      N3163   1.157       .  T
C3169      C3170   1.409       .  A
C3169      C3174   1.396       .  A
C3170      C3175   1.475       .  S
C3170      C3171   1.399       .  A
C3171      H3190   1.085       .  S
C3171      C3172   1.399       .  A
C3172      C3173   1.417       .  A
C3172      C3184   1.444       .  S
C3173      C3174   1.403       .  A
C3174      H3189   1.085       .  S
C3175      C3180   1.410       .  A
C3176      H3191   1.085       .  S
C3176      C3177   1.394       .  A
C3177      C3178   1.413   1_565  A
C3177      C3181   1.445       .  S
C3179      H3192   1.084       .  S
C3179      C3180   1.401       .  A
C3180      C3182   1.443       .  S
C3181      N3185   1.157       .  T
C3182      N3186   1.157       .  T
C3183      N3188   1.157       .  T
C3184      N3187   1.157   1_655  T
C3193      C3194   1.410       .  A
C3193      C3198   1.403       .  A
C3193      C3207   1.443       .  S
C3194      C3199   1.482       .  S
C3194      C3195   1.399       .  A
C3195      H3214   1.086       .  S
C3195      C3196   1.393       .  A
C3196      C3197   1.420       .  A
C3196      C3208   1.446       .  S
C3197      C3198   1.407       .  A
C3198      H3213   1.084       .  S
C3199      C3200   1.404       .  A
C3199      C3204   1.412       .  A
C3200      H3215   1.085       .  S
C3200      C3201   1.397       .  A
C3201      C3202   1.409       .  A
C3201      C3205   1.444       .  S
C3202      C3203   1.403       .  A
C3203      H3216   1.085       .  S
C3203      C3204   1.400       .  A
C3204      C3206   1.444       .  S
C3205      N3209   1.157       .  T
C3206      N3210   1.157       .  T
C3207      N3212   1.157       .  T
C3208      N3211   1.158       .  T
C3217      C3218   1.414       .  A
C3217      C3222   1.404       .  A
C3217      C3231   1.443       .  S
C3218      C3223   1.493       .  S
C3218      C3219   1.404       .  A
C3219      H3238   1.085   1_655  S
C3219      C3220   1.398       .  A
C3220      C3221   1.415       .  A
C3220      C3232   1.445   1_655  S
C3221      C3222   1.405       .  A
C3222      H3237   1.085       .  S
C3223      C3224   1.407       .  A
C3223      C3228   1.415       .  A
C3224      H3239   1.084       .  S
C3224      C3225   1.401       .  A
C3225      C3226   1.409       .  A
C3226      C3227   1.402       .  A
C3227      H3240   1.085   1_655  S
C3227      C3228   1.400       .  A
C3228      C3230   1.444   1_655  S
C3229      N3233   1.157       .  T
C3230      N3234   1.157       .  T
C3231      N3236   1.157       .  T
C3232      N3235   1.158       .  T
C3241      C3242   1.411       .  A
C3241      C3246   1.395       .  A
C3241      C3255   1.445       .  S
C3242      C3247   1.486       .  S
C3242      C3243   1.407       .  A
C3243      H3262   1.084       .  S
C3243      C3244   1.403       .  A
C3244      C3245   1.408       .  A
C3244      C3256   1.443       .  S
C3245      C3246   1.402       .  A
C3246      H3261   1.085       .  S
C3247      C3248   1.403       .  A
C3247      C3252   1.411       .  A
C3248      H3263   1.085       .  S
C3248      C3249   1.400       .  A
C3249      C3250   1.414       .  A
C3249      C3253   1.443       .  S
C3250      C3251   1.407       .  A
C3251      H3264   1.085       .  S
C3251      C3252   1.400       .  A
C3252      C3254   1.446       .  S
C3253      N3257   1.157       .  T
C3254      N3258   1.158       .  T
C3255      N3260   1.157       .  T
C3256      N3259   1.157       .  T
C3265      C3266   1.412       .  A
C3265      C3270   1.397       .  A
C3265      C3279   1.445       .  S
C3266      C3271   1.481       .  S
C3266      C3267   1.402       .  A
C3267      H3286   1.085       .  S
C3267      C3268   1.401       .  A
C3268      C3269   1.415       .  A
C3268      C3280   1.445       .  S
C3269      C3270   1.402       .  A
C3270      H3285   1.085       .  S
C3271      C3272   1.402       .  A
C3271      C3276   1.412       .  A
C3272      H3287   1.085       .  S
C3272      C3273   1.397       .  A
C3273      C3274   1.409       .  A
C3273      C3277   1.444       .  S
C3274      C3275   1.402       .  A
C3275      H3288   1.085       .  S
C3275      C3276   1.400       .  A
C3276      C3278   1.444       .  S
C3277      N3281   1.157       .  T
C3278      N3282   1.157       .  T
C3279      N3284   1.157       .  T
C3289      C3290   1.411       .  A
C3289      C3294   1.406       .  A
C3289      C3303   1.443       .  S
C3290      C3295   1.486       .  S
C3290      C3291   1.401       .  A
C3291      H3310   1.085   1_655  S
C3291      C3292   1.395       .  A
C3292      C3293   1.414       .  A
C3292      C3304   1.445   1_655  S
C3293      C3294   1.406       .  A
C3294      H3309   1.084       .  S
C3295      C3296   1.405       .  A
C3295      C3300   1.412       .  A
C3296      H3311   1.084       .  S
C3297      C3298   1.411       .  A
C3297      C3301   1.444       .  S
C3299      H3312   1.085       .  S
C3299      C3300   1.399   1_455  A
C3300      C3302   1.444       .  S
C3301      N3305   1.157       .  T
C3302      N3306   1.157   1_655  T
C3303      N3308   1.157       .  T
C3304      N3307   1.157       .  T
