geometry optimzed in LAMMPS
_audit_creation_date              2020-12-01 
_audit_creation_method            'lammps2cif' 
_symmetry_space_group_name_H-M    'P1' 
_symmetry_Int_Tables_number       1 
_symmetry_cell_setting            triclinic 
loop_ 
_symmetry_equiv_pos_as_xyz 
  x,y,z 
_cell_length_a                    28.58414207 
_cell_length_b                    28.631845074509815 
_cell_length_c                    42.1267636720639 
_cell_angle_alpha                 90.25634409758749 
_cell_angle_beta                  89.77758300100504 
_cell_angle_gamma                 90.10408513166243 
loop_ 
_atom_site_label 
_atom_site_type_symbol 
_atom_site_fract_x 
_atom_site_fract_y 
_atom_site_fract_z 
_atom_site_charge 
C1          C  0.79909199  0.64642878  0.34054615     0.80000
N2          N  0.81487897  0.68800149  0.32975636    -0.78300
C3          C  0.85674003  0.70529295  0.33898968     0.82400
N4          N  0.88344932  0.68054338  0.35953660    -0.78300
C5          C  0.86804653  0.63887593  0.37090935     0.82500
N6          N  0.82589953  0.62212514  0.36117150    -0.80000
C7          C  0.74212765  0.82711739  0.07818174     0.80000
N8          N  0.72843285  0.78442285  0.08829848    -0.78300
C9          C  0.68653659  0.76601311  0.07993932     0.82400
N10         N  0.65769604  0.79170786  0.06104809    -0.78300
C11         C  0.67104285  0.83467908  0.05028527     0.82500
N12         N  0.71320561  0.85211702  0.05932877    -0.80000
C13         C  0.33804194  0.75615655  0.35171382     0.80000
N14         N  0.36790612  0.78425438  0.36819350    -0.78300
C15         C  0.35361478  0.82672925  0.37939887     0.82400
N16         N  0.30894904  0.84044342  0.37351638    -0.78300
C17         C  0.27839621  0.81253841  0.35755804     0.82500
N18         N  0.29344001  0.77049078  0.34669856    -0.80000
C19         C  0.86992491  0.27890666  0.10012707     0.80000
N20         N  0.82951974  0.29770770  0.11087960    -0.78300
C21         C  0.81365628  0.33883540  0.09956276     0.82400
N22         N  0.83945094  0.36203188  0.07750897    -0.78300
C23         C  0.88066198  0.34415295  0.06660960     0.82500
N24         N  0.89556640  0.30237249  0.07807286    -0.80000
C25         C  0.11532679  0.88626127  0.29647674     0.42200
N26         N  0.09326339  0.93257230  0.25937890     0.01100
C27         C  0.89578950  0.07231635  0.25506031    -0.06800
H28         H  0.86798404  0.89320209  0.23683818     0.06600
C29         C  0.95181442  0.90884625  0.13467653    -0.07100
Co30       Co  0.00806735  0.98688128  0.27719220     0.74200
N31         N  0.92541588  0.93866277  0.24963158    -0.26300
Co32       Co  0.93029888  0.99042533  0.21451025     0.74100
C33         C  0.90520199  0.89239503  0.14406409     0.42300
N34         N  0.06797807  0.92989850  0.16474577     0.00700
N35         N  0.93123327  0.94028875  0.17920839     0.00800
N36         N  0.94370190  0.06782591  0.29734701    -0.47200
H37         H  0.05185293  0.90598365  0.32756103     0.06600
N38         N  0.95577253  0.93757946  0.27323021     0.01100
N39         N  0.93980809  0.04230512  0.17978043     0.00800
C40         C  0.93621194  0.10460997  0.15181713     0.42400
N41         N  0.09811859  0.92790865  0.18842653    -0.25800
C42         C  0.06310907  0.07444497  0.29592397    -0.06700
N43         N  0.12720062  0.90414603  0.26803688    -0.46900
N44         N  0.91526612  0.08110935  0.17584600    -0.47100
C45         C  0.10408284  0.09879068  0.28419008     0.42200
N46         N  0.95693551  0.03877302  0.27439200     0.01100
N47         N  0.10694569  0.02946200  0.18742550    -0.25800
N48         N  0.05962993  0.93557099  0.28074217    -0.26300
N49         N  0.07834528  0.03074555  0.16302823     0.00700
H50         H  0.17324427  0.06213068  0.19717704     0.06600
H51         H  0.99963444  0.08237572  0.12142934     0.06600
N52         N  0.92865600  0.04014933  0.24986287    -0.26300
N53         N  0.96498536  0.93844392  0.15790111    -0.25900
N54         N  0.09575862  0.03522919  0.25763395     0.01100
C55         C  0.91196813  0.87866145  0.28156206     0.42500
C56         C  0.12330821  0.88865094  0.18489964    -0.07200
N57         N  0.97502719  0.03922134  0.15950551    -0.25900
H58         H  0.97049651  0.90304011  0.11263282     0.06600
N59         N  0.94929830  0.90208602  0.29260423    -0.47200
H60         H  0.15070033  0.87711116  0.20065079     0.06600
C61         C  0.13414659  0.07797196  0.15093599     0.42300
C62         C  0.07046956  0.90751905  0.30518381    -0.06700
Co63       Co  0.09959351  0.98116460  0.22331113     0.73800
N64         N  0.07094901  0.89413895  0.14496859    -0.46900
C65         C  0.90599231  0.09124960  0.28638908     0.42600
N66         N  0.12326590  0.07241523  0.26071680    -0.46900
Co67       Co  0.02167338  0.98449370  0.16061758     0.73900
C68         C  0.97515769  0.07643302  0.14057618    -0.07200
C69         C  0.89595444  0.90238792  0.25291184    -0.06800
N70         N  0.06029737  0.03627227  0.27784297    -0.26300
N71         N  0.89491483  0.91410514  0.17162017    -0.47100
H72         H  0.86533986  0.07751055  0.24034761     0.06600
C73         C  0.14275839  0.05854479  0.18222374    -0.07200
Cl74       Cl  0.01493443  0.98559066  0.21891405    -0.50200
C75         C  0.10480290  0.86622524  0.15606549     0.42400
H76         H  0.03872089  0.08405582  0.31448517     0.06600
N77         N  0.09380334  0.05878008  0.14025096    -0.46900
C78         C  0.23034472  0.63649468  0.09509840     0.80000
N79         N  0.21411105  0.67706314  0.10705082    -0.78300
C80         C  0.17483064  0.69707437  0.09601507     0.82400
N81         N  0.15033230  0.67462491  0.07281461    -0.78300
C82         C  0.16580793  0.63318816  0.06048104     0.82500
N83         N  0.20611404  0.61425732  0.07184299    -0.80000
C84         C  0.74127668  0.15655191  0.35245814     0.80000
N85         N  0.71501788  0.12746490  0.37086354    -0.78300
C86         C  0.67105055  0.13983324  0.38035583     0.82400
N87         N  0.65287630  0.18103606  0.37015565    -0.78300
C88         C  0.67848148  0.21038567  0.35167363     0.82500
N89         N  0.72247651  0.19780452  0.34319024    -0.80000
C90         C  0.16225184  0.34255059  0.36504177     0.80000
N91         N  0.14691360  0.29964544  0.35541354    -0.78300
C92         C  0.17200021  0.27404022  0.33410776     0.82400
N93         N  0.21171135  0.29203387  0.32170468    -0.78300
C94         C  0.22744552  0.33468073  0.33066840     0.82500
N95         N  0.20264030  0.35991375  0.35239829    -0.80000
C96         C  0.35708399  0.14392763  0.05191400     0.80000
N97         N  0.37264164  0.18842125  0.05700722    -0.78300
C98         C  0.34731677  0.21922064  0.07487740     0.82400
N99         N  0.30673838  0.20465356  0.08843787    -0.78300
C100        C  0.29084339  0.16045217  0.08405166     0.82500
N101        N  0.31620367  0.13041197  0.06577410    -0.80000
C102        C  0.62708637  0.57844673  0.28496510     0.42200
N103        N  0.56886665  0.56731441  0.25402509     0.01100
C104        C  0.42667976  0.37438497  0.24602521    -0.06800
H105        H  0.59808504  0.33210623  0.23791201     0.06600
C106        C  0.60980880  0.44240191  0.13694117    -0.07100
Co107      Co  0.51583710  0.48186768  0.27237973     0.74200
N108        N  0.56592252  0.39899186  0.24597773    -0.26300
Co109      Co  0.51814701  0.40349352  0.20949183     0.74100
C110        C  0.63478555  0.40150414  0.14833666     0.42300
N111        N  0.56802000  0.54885598  0.15885073     0.00700
N112        N  0.57189940  0.40997804  0.17565546     0.00800
N113        N  0.42708984  0.42757054  0.28608509    -0.47200
H114        H  0.61006248  0.51246763  0.31390200     0.06600
N115        N  0.56520875  0.42774385  0.27045775     0.01100
N116        N  0.46993732  0.40626033  0.17306359     0.00800
C117        C  0.42486483  0.38120377  0.13597401     0.42400
N118        N  0.56761179  0.57766123  0.18331031    -0.25800
C119        C  0.43663792  0.54787803  0.29860373    -0.06700
N120        N  0.60427812  0.59606985  0.25962907    -0.46900
N121        N  0.44361361  0.37052965  0.16428652    -0.47100
C122        C  0.41815063  0.59392676  0.28957604     0.42200
N123        N  0.46389097  0.43223796  0.26734602     0.01100
N124        N  0.46585812  0.57403068  0.18364278    -0.25800
N125        N  0.56757783  0.53208164  0.27417268    -0.26300
N126        N  0.46661869  0.54393972  0.15975312     0.00700
H127        H  0.41796471  0.62860603  0.19702954     0.06600
H128        H  0.44021567  0.44582558  0.10522283     0.06600
N129        N  0.46456046  0.40186159  0.24360163    -0.26300
N130        N  0.57172186  0.44496826  0.15530761    -0.25900
N131        N  0.46716574  0.56984528  0.25412660     0.01100
C132        C  0.61154674  0.37212985  0.28423353     0.42500
C133        C  0.59735495  0.61281335  0.17765519    -0.07200
N134        N  0.47082787  0.43995122  0.15188288    -0.25900
H135        H  0.61930280  0.46698480  0.11859473     0.06600
N136        N  0.59102256  0.41216977  0.29433148    -0.47200
H137        H  0.60097995  0.64388407  0.19214155     0.06600
C138        C  0.40401828  0.58305540  0.15258190     0.42300
C139        C  0.60290193  0.53604696  0.29454680    -0.06700
Co140      Co  0.51753314  0.57309479  0.21878314     0.73800
N141        N  0.59568184  0.56377241  0.13563206    -0.46900
C142        C  0.40229366  0.39158526  0.27430521     0.42600
N143        N  0.43906645  0.60469778  0.26181245    -0.46900
Co144      Co  0.51921538  0.49459847  0.15580064     0.73900
C145        C  0.44320966  0.42732845  0.12745531    -0.07200
C146        C  0.59437449  0.36325623  0.25231714    -0.06800
N147        N  0.46682137  0.53611377  0.27524582    -0.26300
N148        N  0.60927031  0.38307037  0.17232848    -0.47100
H149        H  0.41701133  0.34692035  0.22961256     0.06600
C150        C  0.42760470  0.60071349  0.18098481    -0.07200
Cl151      Cl  0.51771426  0.48827518  0.21412313    -0.50200
C152        C  0.61634709  0.60341784  0.14615902     0.42400
H153        H  0.43101249  0.52791970  0.31996258     0.06600
N154        N  0.43044117  0.54825302  0.14059907    -0.46900
C155        C  0.48989290  0.94424726  0.47867201     0.02000
C156        C  0.48870106  0.94560061  0.44517050     0.02000
C157        C  0.51832583  0.97693140  0.42887450    -0.18500
C158        C  0.54891092  0.00718620  0.44542558     0.02000
C159        C  0.54834995  0.00647369  0.47910583     0.02000
C160        C  0.52008449  0.97413957  0.49504769    -0.18500
H161        H  0.52078372  0.97295203  0.52078440     0.04000
H162        H  0.51649383  0.97861959  0.40323377     0.04000
C163        C  0.98680186  0.45930376  0.94542368     0.02000
C164        C  0.98662877  0.46039835  0.97916845     0.02000
C165        C  0.01617513  0.49158318  0.99521154    -0.18500
C166        C  0.04597818  0.52194522  0.97880989     0.02000
C167        C  0.04809383  0.51983664  0.94533045     0.02000
C168        C  0.01856839  0.48846577  0.92903252    -0.18500
H169        H  0.02088235  0.48648585  0.90341881     0.04000
H170        H  0.01593604  0.49229948  0.02095794     0.04000
C171        C  0.98428064  0.51675446  0.44657160     0.02000
C172        C  0.98136395  0.51573350  0.48009375     0.02000
C173        C  0.00991062  0.48456214  0.49690036    -0.18500
C174        C  0.04102017  0.45442671  0.48103125     0.02000
C175        C  0.04371114  0.45533055  0.44754176     0.02000
C176        C  0.01619270  0.48735722  0.43085818    -0.18500
H177        H  0.01935862  0.48901921  0.40523189     0.04000
H178        H  0.00770750  0.48351722  0.52258954     0.04000
C179        C  0.53980219  0.95313739  0.98203152     0.02000
C180        C  0.54158004  0.95609746  0.94851286     0.02000
C181        C  0.51074676  0.98599427  0.93279893    -0.18500
C182        C  0.47939308  0.01464717  0.94956561     0.02000
C183        C  0.47826848  0.01325669  0.98312960     0.02000
C184        C  0.50845021  0.98224571  0.99900678    -0.18500
H185        H  0.50804389  0.98123181  0.02471330     0.04000
H186        H  0.51153862  0.98741405  0.90709089     0.04000
C187        C  0.65875277  0.77942801  0.82642003     0.80000
N188        N  0.63586205  0.80329144  0.84964768    -0.78300
C189        C  0.65401660  0.84336744  0.86200561     0.82400
N190        N  0.69566332  0.85958152  0.85038504    -0.78300
C191        C  0.71928813  0.83506996  0.82761208     0.82500
N192        N  0.70053352  0.79526307  0.81596896    -0.80000
C193        C  0.78740864  0.32276659  0.85217139     0.80000
N194        N  0.81605768  0.34874463  0.87095596    -0.78300
C195        C  0.85989152  0.33367474  0.87821779     0.82400
N196        N  0.87542044  0.29236596  0.86581368    -0.78300
C197        C  0.84696887  0.26558488  0.84726005     0.82500
N198        N  0.80334136  0.28139680  0.84068084    -0.80000
C199        C  0.36273016  0.12612487  0.86693261     0.80000
N200        N  0.32456420  0.10801360  0.85191599    -0.78300
C201        C  0.30139246  0.13360741  0.82979928     0.82400
N202        N  0.31652435  0.17711724  0.82312951    -0.78300
C203        C  0.35463189  0.19548986  0.83728195     0.82500
N204        N  0.37754809  0.16987307  0.85928073    -0.80000
C205        C  0.17643919  0.72031933  0.84876465     0.80000
N206        N  0.22043074  0.70786671  0.84018254    -0.78300
C207        C  0.23908179  0.66661296  0.84954631     0.82400
N208        N  0.21293591  0.63789269  0.86842553    -0.78300
C209        C  0.16897999  0.65040692  0.87789607     0.82500
N210        N  0.15105116  0.69140973  0.86752365    -0.80000
C211        C  0.16503341  0.33508945  0.55401753     0.80000
N212        N  0.20885043  0.34897813  0.56237156    -0.78300
C213        C  0.23770170  0.32038881  0.57884747     0.82400
N214        N  0.22207362  0.27768211  0.58716610    -0.78300
C215        C  0.17879526  0.26248643  0.57918423     0.82500
N216        N  0.15018265  0.29155653  0.56268901    -0.80000
C217        C  0.65894940  0.19043815  0.59835040     0.80000
N218        N  0.63633877  0.16449942  0.57602418    -0.78300
C219        C  0.65657154  0.12550083  0.56337083     0.82400
N220        N  0.69956097  0.11259726  0.57373412    -0.78300
C221        C  0.72212875  0.13798245  0.59624405     0.82500
N222        N  0.70176974  0.17681411  0.60829024    -0.80000
C223        C  0.40381433  0.58370901  0.79302169     0.42200
N224        N  0.42744042  0.53409186  0.75815560     0.01100
C225        C  0.63010622  0.40127530  0.75848414    -0.06800
H226        H  0.65058513  0.58209382  0.73755723     0.06600
C227        C  0.57601763  0.55992051  0.63529435    -0.07100
Co228      Co  0.51381300  0.48350720  0.77759584     0.74200
N229        N  0.59597199  0.53364081  0.75076443    -0.26300
Co230      Co  0.59489696  0.48042791  0.71600678     0.74100
C231        C  0.62268614  0.57654771  0.64487555     0.42300
N232        N  0.45750904  0.53701503  0.66470807     0.00700
N233        N  0.59530951  0.52962718  0.68018994     0.00800
N234        N  0.58039423  0.40651124  0.79998956    -0.47200
H235        H  0.46747617  0.56885294  0.82503184     0.06600
N236        N  0.56478357  0.53418346  0.77402211     0.01100
N237        N  0.58829991  0.42758951  0.68109211     0.00800
C238        C  0.59507104  0.36552495  0.65247879     0.42400
N239        N  0.42604023  0.53694230  0.68777442    -0.25800
C240        C  0.45814993  0.39690787  0.79777258    -0.06700
N241        N  0.39308082  0.56322619  0.76515939    -0.46900
N242        N  0.61372264  0.38918729  0.67738964    -0.47100
C243        C  0.41651044  0.37260491  0.78692618     0.42200
N244        N  0.56666482  0.43320939  0.77610679     0.01100
N245        N  0.42141498  0.43555439  0.68640117    -0.25800
N246        N  0.46044748  0.53345624  0.77987635    -0.26300
N247        N  0.45090835  0.43590526  0.66231870     0.00700
H248        H  0.35492190  0.40208964  0.69397659     0.06600
H249        H  0.53142475  0.38524812  0.62206666     0.06600
N250        N  0.59606671  0.43164976  0.75199329    -0.26300
N251        N  0.56218972  0.53085301  0.65859777    -0.25900
N252        N  0.42825214  0.43212003  0.75723572     0.01100
C253        C  0.60433764  0.59662620  0.78163287     0.42500
C254        C  0.39913648  0.57488932  0.68477360    -0.07200
N255        N  0.55419883  0.43007217  0.66009250    -0.25900
H256        H  0.55707847  0.56585489  0.61356713     0.06600
N257        N  0.56838503  0.57108464  0.79270513    -0.47200
H258        H  0.37002590  0.58335327  0.70008595     0.06600
C259        C  0.39654354  0.38835416  0.64821337     0.42300
C260        C  0.44861776  0.56376521  0.80308086    -0.06700
Co261      Co  0.42482646  0.48447726  0.72237447     0.73800
N262        N  0.45397408  0.57358949  0.64586287    -0.46900
C263        C  0.61957150  0.38416881  0.79017904     0.42600
N264        N  0.39961561  0.39616454  0.76161659    -0.46900
Co265      Co  0.50605675  0.48374105  0.66079465     0.73900
C266        C  0.55583002  0.39282892  0.64096220    -0.07200
C267        C  0.62269362  0.57207272  0.75356083    -0.06800
N268        N  0.46266725  0.43283924  0.77806565    -0.26300
N269        N  0.63177114  0.55598470  0.67288240    -0.47100
H270        H  0.66152133  0.39634089  0.74448039     0.06600
C271        C  0.38645474  0.40603818  0.67994636    -0.07200
Cl272      Cl  0.50990831  0.48306518  0.71918942    -0.50200
C273        C  0.41823547  0.59952052  0.65717183     0.42400
H274        H  0.48135753  0.38897798  0.81721720     0.06600
N275        N  0.43662353  0.40903483  0.63854288    -0.46900
C276        C  0.84290690  0.71223479  0.57377882     0.80000
N277        N  0.80229874  0.69666986  0.58673263    -0.78300
C278        C  0.78703904  0.65236120  0.58170453     0.82400
N279        N  0.81315235  0.62307252  0.56320190    -0.78300
C280        C  0.85426597  0.63789979  0.55007482     0.82500
N281        N  0.86900751  0.68238795  0.55588796    -0.80000
C282        C  0.30775846  0.83344533  0.60081176     0.80000
N283        N  0.32444169  0.79248608  0.61172162    -0.78300
C284        C  0.36470987  0.77430886  0.60017564     0.82400
N285        N  0.38867839  0.79761665  0.57727014    -0.78300
C286        C  0.37231748  0.83884131  0.56566743     0.82500
N287        N  0.33162009  0.85639403  0.57765025    -0.80000
C288        C  0.88868935  0.90527421  0.77003520     0.42200
N289        N  0.95258132  0.91058499  0.74342683     0.01100
C290        C  0.10417840  0.09576741  0.74474462    -0.06800
H291        H  0.93317925  0.14536518  0.73055813     0.06600
C292        C  0.92922839  0.03876456  0.62687168    -0.07100
Co293      Co  0.00787134  0.99276302  0.76558796     0.74200
N294        N  0.96296116  0.07783375  0.73912926    -0.26300
Co295      Co  0.01393982  0.07230931  0.70451474     0.74100
C296        C  0.90533366  0.08096335  0.63694780     0.42300
N297        N  0.96295943  0.93053618  0.64874459     0.00700
N298        N  0.96335420  0.06900947  0.66807500     0.00800
N299        N  0.09742947  0.04195633  0.78356148    -0.47200
H300        H  0.90798580  0.96802336  0.80164578     0.06600
N301        N  0.96089345  0.04886168  0.76327305     0.01100
N302        N  0.06539650  0.06766274  0.67048923     0.00800
C303        C  0.11659914  0.09147755  0.63701349     0.42400
N304        N  0.96007000  0.90144479  0.67278828    -0.25800
C305        C  0.08413663  0.92413131  0.79167929    -0.06700
N306        N  0.91391111  0.88516321  0.74633103    -0.46900
N307        N  0.09526263  0.10164539  0.66462022    -0.47100
C308        C  0.10266440  0.87866656  0.78165897     0.42200
N309        N  0.06186084  0.04013066  0.76374580     0.01100
N310        N  0.06219469  0.90080841  0.67611007    -0.25800
N311        N  0.95391438  0.94520540  0.76426893    -0.26300
N312        N  0.06387112  0.93157120  0.65283612     0.00700
H313        H  0.10908136  0.84506425  0.68935346     0.06600
H314        H  0.10063835  0.03021472  0.60295714     0.06600
N315        N  0.06472601  0.07097028  0.74063571    -0.26300
N316        N  0.96443951  0.03442300  0.64722253    -0.25900
N317        N  0.05487000  0.90392212  0.74651841     0.01100
C318        C  0.91434270  0.10511771  0.77587503     0.42500
C319        C  0.92983834  0.86741502  0.66558987    -0.07200
N320        N  0.06481584  0.03540477  0.64812574    -0.25900
H321        H  0.92093465  0.01403369  0.60830444     0.06600
N322        N  0.93326236  0.06467050  0.78636167    -0.47200
H323        H  0.92414473  0.83619065  0.67945086     0.06600
C324        C  0.12518327  0.89040102  0.64537559     0.42300
C325        C  0.91556275  0.94426449  0.78232141    -0.06700
Co326      Co  0.00724754  0.90312320  0.70983347     0.73800
N327        N  0.93739640  0.91657414  0.62420496    -0.46900
C328        C  0.12591379  0.07617554  0.77336316     0.42600
N329        N  0.08210201  0.86840950  0.75379510    -0.46900
Co330      Co  0.01406770  0.98288567  0.64867295     0.73900
C331        C  0.09582478  0.04771231  0.62554630    -0.07200
C332        C  0.93462262  0.11401479  0.74473213    -0.06800
N333        N  0.05484963  0.93697182  0.76834712    -0.26300
N334        N  0.92764871  0.09751034  0.66306304    -0.47100
H335        H  0.11640204  0.12318302  0.72922326     0.06600
C336        C  0.10003848  0.87320039  0.67348813    -0.07200
Cl337      Cl  0.01063727  0.98776219  0.70714798    -0.50200
C338        C  0.91456763  0.87742434  0.63341114     0.42400
H339        H  0.08883357  0.94238848  0.81397033     0.06600
N340        N  0.10075089  0.92675687  0.63418399    -0.46900
C341        C  0.22953298  0.86712345  0.59114249    -0.20600
C342        C  0.26255105  0.85106613  0.61299771    -0.07100
C343        C  0.25070236  0.84955849  0.64567016     0.13700
C344        C  0.20550959  0.86228389  0.65538768    -0.20600
C345        C  0.17203407  0.87707467  0.63345191    -0.07100
C346        C  0.18440623  0.88021196  0.60089474     0.13700
C347        C  0.15000349  0.89573017  0.57603698    -0.24000
H348        H  0.23870398  0.86821583  0.56616876     0.15000
H349        H  0.19644824  0.86114676  0.68036755     0.15000
C350        C  0.28571123  0.83589705  0.67063524    -0.23900
H351        H  0.16487414  0.89292595  0.55170090     0.05300
H352        H  0.14046058  0.93284994  0.57997123     0.08500
H353        H  0.11813534  0.87353939  0.57703252     0.08500
H354        H  0.31788585  0.85739348  0.66816596     0.08500
H355        H  0.29444361  0.79836875  0.66829860     0.08500
H356        H  0.27171936  0.84132680  0.69500958     0.05200
C357        C  0.90998763  0.76387548  0.58757494    -0.20600
C358        C  0.86155938  0.75903633  0.58280300    -0.07100
C359        C  0.83211519  0.79787416  0.58919385     0.13700
C360        C  0.85099701  0.83799667  0.60374140    -0.20600
C361        C  0.89851041  0.84056139  0.61139249    -0.07100
C362        C  0.92880271  0.80417349  0.60176519     0.13700
C363        C  0.98085151  0.80725709  0.60723257    -0.24000
H364        H  0.93303345  0.73498095  0.58187756     0.15000
H365        H  0.82818909  0.86661398  0.61048978     0.15000
C366        C  0.78101454  0.79771055  0.58046783    -0.23900
H367        H  0.99951319  0.77649937  0.59724798     0.05300
H368        H  0.98845063  0.80887286  0.63300905     0.08500
H369        H  0.99501434  0.83903074  0.59559211     0.08500
H370        H  0.76129136  0.77265098  0.59538143     0.08500
H371        H  0.77708142  0.78828338  0.55501597     0.08500
H372        H  0.76489781  0.83260228  0.58413391     0.05200
C373        C  0.41066775  0.65082619  0.61046678    -0.20600
C374        C  0.40457271  0.64489044  0.64336852    -0.07100
C375        C  0.38869868  0.68299988  0.66198432     0.13700
C376        C  0.37787315  0.72511298  0.64699584    -0.20600
C377        C  0.38227027  0.73048252  0.61403980    -0.07100
C378        C  0.39952061  0.69306917  0.59550181     0.13700
C379        C  0.40462407  0.69673741  0.55997877    -0.24000
H380        H  0.42354504  0.62190124  0.59624814     0.15000
H381        H  0.36553333  0.75424393  0.66120368     0.15000
C382        C  0.38412391  0.68073598  0.69761531    -0.23900
H383        H  0.41674032  0.66338572  0.54920601     0.05300
H384        H  0.43075992  0.72403748  0.55396947     0.08500
H385        H  0.37039274  0.70569473  0.54924563     0.08500
H386        H  0.41699555  0.66749055  0.70823065     0.08500
H387        H  0.35413655  0.65822040  0.70421908     0.08500
H388        H  0.37714255  0.71566705  0.70817911     0.05200
C389        C  0.69109539  0.62920997  0.64321840    -0.20600
C390        C  0.66040598  0.60005768  0.62630849    -0.07100
C391        C  0.67115934  0.58896797  0.59426857     0.13700
C392        C  0.71247060  0.60674529  0.58038120    -0.20600
C393        C  0.74324155  0.63571504  0.59742402    -0.07100
C394        C  0.73207621  0.64726521  0.62935899     0.13700
C395        C  0.76423045  0.67644526  0.64975727    -0.24000
H396        H  0.68343796  0.63702721  0.66791280     0.15000
H397        H  0.72092891  0.59782087  0.55599441     0.15000
C398        C  0.64069622  0.55691911  0.57485412    -0.23900
H399        H  0.75169964  0.67862146  0.67471522     0.05300
H400        H  0.76608236  0.71265934  0.64062142     0.08500
H401        H  0.79974118  0.66078658  0.64998153     0.08500
H402        H  0.60613894  0.57340985  0.57102951     0.08500
H403        H  0.63636260  0.52293092  0.58711472     0.08500
H404        H  0.65610714  0.54979877  0.55108026     0.05200
C405        C  0.64739242  0.24359849  0.64424721    -0.20600
C406        C  0.63824096  0.23345321  0.61216702    -0.07100
C407        C  0.61349024  0.26632119  0.59381606     0.13700
C408        C  0.60013270  0.30890275  0.60777338    -0.20600
C409        C  0.61063447  0.31970302  0.63960413    -0.07100
C410        C  0.63393064  0.28609903  0.65823672     0.13700
C411        C  0.64405786  0.29410514  0.69294410    -0.24000
H412        H  0.66558736  0.21808491  0.65851236     0.15000
H413        H  0.58215732  0.33436689  0.59335213     0.15000
C414        C  0.60259226  0.25782577  0.55926220    -0.23900
H415        H  0.66032075  0.26302977  0.70406012     0.05300
H416        H  0.61102807  0.30165906  0.70593719     0.08500
H417        H  0.66879330  0.32371663  0.69580032     0.08500
H418        H  0.57868087  0.22744790  0.55682959     0.08500
H419        H  0.63542869  0.25114934  0.54583429     0.08500
H420        H  0.58503966  0.28831512  0.54831214     0.05200
C421        C  0.80250901  0.11188309  0.58419779    -0.20600
C422        C  0.76895405  0.12406316  0.60707954    -0.07100
C423        C  0.78072788  0.12275289  0.63964969     0.13700
C424        C  0.82592324  0.10943647  0.64845176    -0.20600
C425        C  0.85940779  0.09692361  0.62564418    -0.07100
C426        C  0.84772319  0.09835162  0.59298504     0.13700
C427        C  0.88271855  0.08730995  0.56713753    -0.24000
H428        H  0.79331792  0.11329669  0.55925953     0.15000
H429        H  0.83488706  0.10778871  0.67341765     0.15000
C430        C  0.74550397  0.13358672  0.66534789    -0.23900
H431        H  0.86903261  0.09630639  0.54329116     0.05300
H432        H  0.89051355  0.04948076  0.56667473     0.08500
H433        H  0.91535674  0.10763459  0.57089637     0.08500
H434        H  0.71393742  0.11138629  0.66226618     0.08500
H435        H  0.73565848  0.17096195  0.66442667     0.08500
H436        H  0.75979178  0.12689958  0.68938866     0.05200
C437        C  0.11435026  0.14603213  0.59165833    -0.20600
C438        C  0.13792431  0.12925395  0.61842321    -0.07100
C439        C  0.17533240  0.15506133  0.63120615     0.13700
C440        C  0.18776473  0.19757895  0.61738468    -0.20600
C441        C  0.16327542  0.21598938  0.59126889    -0.07100
C442        C  0.12609680  0.18939670  0.57807571     0.13700
C443        C  0.09803771  0.20629818  0.55022341    -0.24000
H444        H  0.08471510  0.12651587  0.58258275     0.15000
H445        H  0.21601318  0.21730329  0.62806627     0.15000
C446        C  0.20180160  0.13814907  0.65989259    -0.23900
H447        H  0.07199329  0.17988487  0.54234295     0.05300
H448        H  0.12162241  0.21370464  0.52985515     0.08500
H449        H  0.07841209  0.23824151  0.55698538     0.08500
H450        H  0.21658561  0.10301920  0.65495334     0.08500
H451        H  0.17817459  0.13615413  0.68079841     0.08500
H452        H  0.23115312  0.16189772  0.66616257     0.05200
C453        C  0.28670861  0.38569176  0.59871630    -0.20600
C454        C  0.28279599  0.33781125  0.59181181    -0.07100
C455        C  0.32025959  0.30762956  0.60013757     0.13700
C456        C  0.35835517  0.32565301  0.61727280    -0.20600
C457        C  0.35998975  0.37268245  0.62614811    -0.07100
C458        C  0.32469500  0.40347531  0.61585233     0.13700
C459        C  0.32652294  0.45503287  0.62333573    -0.24000
H460        H  0.25876147  0.40916833  0.59217673     0.15000
H461        H  0.38618111  0.30258312  0.62483292     0.15000
C462        C  0.32092819  0.25658945  0.59108707    -0.23900
H463        H  0.29699919  0.47416609  0.61233647     0.05300
H464        H  0.35964654  0.47015662  0.61409597     0.08500
H465        H  0.32443009  0.46085845  0.64934013     0.08500
H466        H  0.31461651  0.25263238  0.56522472     0.08500
H467        H  0.29412037  0.23704006  0.60470212     0.08500
H468        H  0.35521098  0.24024746  0.59642473     0.05200
C469        C  0.30927932  0.61496021  0.85313365    -0.20600
C470        C  0.28574689  0.65097634  0.83708753    -0.07100
C471        C  0.30590655  0.66846354  0.80848155     0.13700
C472        C  0.34649690  0.64746125  0.79611951    -0.20600
C473        C  0.36835923  0.61018260  0.81142186    -0.07100
C474        C  0.35015017  0.59434378  0.84069325     0.13700
C475        C  0.37186188  0.55395581  0.85800942    -0.24000
H476        H  0.29484423  0.60175069  0.87516016     0.15000
H477        H  0.36047856  0.65910092  0.77351942     0.15000
C478        C  0.28448386  0.70768006  0.78963917    -0.23900
H479        H  0.35194000  0.54492203  0.87983135     0.05300
H480        H  0.40799158  0.56317069  0.86524362     0.08500
H481        H  0.37256427  0.52258517  0.84242222     0.08500
H482        H  0.28398196  0.74021969  0.80406283     0.08500
H483        H  0.24849339  0.69808886  0.78221119     0.08500
H484        H  0.30476342  0.71538645  0.76771932     0.05200
C485        C  0.18226320  0.80340469  0.83207342    -0.20600
C486        C  0.15503583  0.76260327  0.83485473    -0.07100
C487        C  0.10963664  0.76161647  0.82148098     0.13700
C488        C  0.09303452  0.80112004  0.80565743    -0.20600
C489        C  0.12053927  0.84138233  0.80235270    -0.07100
C490        C  0.16548779  0.84286304  0.81591632     0.13700
C491        C  0.19642858  0.88505607  0.81202518    -0.24000
H492        H  0.21723514  0.80397819  0.84193389     0.15000
H493        H  0.05864109  0.80013199  0.79488910     0.15000
C494        C  0.07949202  0.71828569  0.82175766    -0.23900
H495        H  0.23091961  0.88013222  0.82358491     0.05300
H496        H  0.17935638  0.91602036  0.82293005     0.08500
H497        H  0.20257369  0.89173204  0.78639725     0.08500
H498        H  0.06924170  0.70951277  0.84640787     0.08500
H499        H  0.09883269  0.68861648  0.81088787     0.08500
H500        H  0.04671809  0.72310971  0.80808088     0.05200
C501        C  0.33827235  0.27261246  0.81347363    -0.20600
C502        C  0.37129587  0.24202598  0.82684362    -0.07100
C503        C  0.41910878  0.25492129  0.82674166     0.13700
C504        C  0.43226730  0.29750256  0.81317390    -0.20600
C505        C  0.39935467  0.32762096  0.79947976    -0.07100
C506        C  0.35167322  0.31492472  0.79950368     0.13700
C507        C  0.31466841  0.34583728  0.78534253    -0.24000
H508        H  0.30154634  0.26311155  0.81356830     0.15000
H509        H  0.46899335  0.30689045  0.81278367     0.15000
C510        C  0.45695434  0.22388411  0.83977391    -0.23900
H511        H  0.27901662  0.33104376  0.78856796     0.05300
H512        H  0.32084771  0.34961797  0.75945671     0.08500
H513        H  0.31546993  0.38072332  0.79694017     0.08500
H514        H  0.45624500  0.18944442  0.82756322     0.08500
H515        H  0.45187830  0.21941653  0.86570651     0.08500
H516        H  0.49238923  0.23901865  0.83620716     0.05200
C517        C  0.20229582  0.11691073  0.77062645    -0.20600
C518        C  0.17204767  0.08760833  0.78762798    -0.07100
C519        C  0.18682112  0.06996682  0.81746523     0.13700
C520        C  0.22994163  0.08439919  0.82998731    -0.20600
C521        C  0.25896286  0.11565768  0.81365248    -0.07100
C522        C  0.24551381  0.13095387  0.78296544     0.13700
C523        C  0.27644557  0.16126173  0.76239257    -0.24000
H524        H  0.19220320  0.12925843  0.74742223     0.15000
H525        H  0.24038284  0.07222470  0.85321850     0.15000
C526        C  0.15765251  0.03651948  0.83680571    -0.23900
H527        H  0.26246515  0.16466126  0.73794155     0.05300
H528        H  0.31187918  0.14565272  0.76044725     0.08500
H529        H  0.27868897  0.19710491  0.77234373     0.08500
H530        H  0.15263935  0.00346939  0.82339362     0.08500
H531        H  0.12330889  0.05251467  0.84261482     0.08500
H532        H  0.17472576  0.02738753  0.85958943     0.05200
C533        C  0.84079501  0.20780574  0.80312801    -0.20600
C534        C  0.86365106  0.22175788  0.83123954    -0.07100
C535        C  0.90069621  0.19348165  0.84267343     0.13700
C536        C  0.91483529  0.15388758  0.82505192    -0.20600
C537        C  0.89328952  0.14187441  0.79625274    -0.07100
C538        C  0.85504958  0.16853232  0.78561367     0.13700
C539        C  0.82847228  0.15523350  0.75601667    -0.24000
H540        H  0.81199921  0.22837747  0.79415438     0.15000
H541        H  0.94411779  0.13319264  0.83319104     0.15000
C542        C  0.92529781  0.20404322  0.87341879    -0.23900
H543        H  0.79774982  0.17822175  0.75224122     0.05300
H544        H  0.81556019  0.11876676  0.75806330     0.08500
H545        H  0.85121372  0.15822267  0.73476869     0.08500
H546        H  0.89937294  0.20547925  0.89307217     0.08500
H547        H  0.94440834  0.23767597  0.87163160     0.08500
H548        H  0.95138758  0.17677513  0.87936381     0.05200
C549        C  0.70866112  0.30664458  0.82942575    -0.20600
C550        C  0.74047301  0.33985229  0.84169420    -0.07100
C551        C  0.72813659  0.38792562  0.84043259     0.13700
C552        C  0.68607728  0.40101861  0.82570003    -0.20600
C553        C  0.65647303  0.36778429  0.81173921    -0.07100
C554        C  0.66734828  0.32011707  0.81409218     0.13700
C555        C  0.63609242  0.28361737  0.79938362    -0.24000
H556        H  0.71700261  0.26979953  0.83058634     0.15000
H557        H  0.67752831  0.43771964  0.82332675     0.15000
C558        C  0.75981105  0.42613169  0.85257558    -0.23900
H559        H  0.64954100  0.24775683  0.80335926     0.05300
H560        H  0.63375812  0.28930835  0.77337698     0.08500
H561        H  0.60053126  0.28601432  0.80996786     0.08500
H562        H  0.79380942  0.42492598  0.83978316     0.08500
H563        H  0.76531549  0.42208518  0.87848222     0.08500
H564        H  0.74467429  0.46136551  0.84878429     0.05200
C565        C  0.61962612  0.70348623  0.83484470    -0.20600
C566        C  0.64009845  0.73509832  0.81362433    -0.07100
C567        C  0.64637533  0.72174965  0.78144534     0.13700
C568        C  0.63569801  0.67599010  0.77210313    -0.20600
C569        C  0.61621209  0.64392497  0.79345176    -0.07100
C570        C  0.60707648  0.65825100  0.82517369     0.13700
C571        C  0.58562048  0.62595855  0.84942189    -0.24000
H572        H  0.61469388  0.71376063  0.85942581     0.15000
H573        H  0.64115252  0.66593610  0.74753413     0.15000
C574        C  0.66233217  0.75503563  0.75589944    -0.23900
H575        H  0.58404263  0.64230388  0.87336603     0.05300
H576        H  0.60679513  0.59362128  0.85127776     0.08500
H577        H  0.54919244  0.61714008  0.84260842     0.08500
H578        H  0.69769389  0.74487803  0.74736682     0.08500
H579        H  0.66289033  0.79196119  0.76377812     0.08500
H580        H  0.63762896  0.75336411  0.73563386     0.05200
C581        C  0.76643246  0.89987581  0.80541131    -0.20600
C582        C  0.76344863  0.85258016  0.81359920    -0.07100
C583        C  0.80124270  0.82234449  0.80606789     0.13700
C584        C  0.84105906  0.84045063  0.79092399    -0.20600
C585        C  0.84423432  0.88779362  0.78324169    -0.07100
C586        C  0.80617807  0.91787367  0.79006366     0.13700
C587        C  0.80612359  0.96836572  0.77994100    -0.24000
H588        H  0.73700233  0.92264401  0.81038153     0.15000
H589        H  0.87042706  0.81771800  0.78570815     0.15000
C590        C  0.80083136  0.77132010  0.81486249    -0.23900
H591        H  0.77167322  0.98511294  0.78437153     0.05300
H592        H  0.81372629  0.97077641  0.75412960     0.08500
H593        H  0.83244893  0.98863113  0.79342325     0.08500
H594        H  0.77391172  0.75229720  0.80098355     0.08500
H595        H  0.79364457  0.76755751  0.84064484     0.08500
H596        H  0.83495314  0.75433508  0.80970506     0.05200
C597        C  0.40118528  0.03600786  0.92853013    -0.20600
C598        C  0.44906068  0.04623014  0.93088933    -0.07100
C599        C  0.46798342  0.08302089  0.91265747     0.13700
C600        C  0.43877682  0.10794450  0.89225294    -0.20600
C601        C  0.39071735  0.09791169  0.88965953    -0.07100
C602        C  0.37152232  0.06183633  0.90869274     0.13700
C603        C  0.32001719  0.05049229  0.90879718    -0.24000
H604        H  0.38711850  0.00665440  0.94157202     0.15000
H605        H  0.45423121  0.13515400  0.87784960     0.15000
C606        C  0.51891156  0.09681565  0.91378668    -0.23900
H607        H  0.31108436  0.02397569  0.92702895     0.05300
H608        H  0.30952797  0.03600586  0.88542313     0.08500
H609        H  0.29949362  0.08245767  0.91422338     0.08500
H610        H  0.53506235  0.09144962  0.89003658     0.08500
H611        H  0.53925922  0.07669738  0.93132023     0.08500
H612        H  0.52185261  0.13429903  0.92037177     0.05200
C613        C  0.56655037  0.87896784  0.92726019    -0.20600
C614        C  0.57408299  0.92721730  0.92888365    -0.07100
C615        C  0.61047779  0.94718062  0.91054435     0.13700
C616        C  0.63637443  0.91879547  0.88964480    -0.20600
C617        C  0.62738430  0.87061567  0.88657849    -0.07100
C618        C  0.59269260  0.85029835  0.90662491     0.13700
C619        C  0.58286307  0.79853105  0.90706203    -0.24000
H620        H  0.53910046  0.86380122  0.94177468     0.15000
H621        H  0.66332231  0.93491665  0.87518536     0.15000
C622        C  0.62336660  0.99817250  0.91269971    -0.23900
H623        H  0.55785258  0.78898229  0.92622347     0.05300
H624        H  0.61577172  0.77901720  0.91129696     0.08500
H625        H  0.56686781  0.78733918  0.88431715     0.08500
H626        H  0.60279071  0.01735920  0.93085027     0.08500
H627        H  0.61784315  0.01504065  0.88933504     0.08500
H628        H  0.66082064  0.00151380  0.91925970     0.05200
C629        C  0.11096809  0.44300479  0.51427061    -0.20600
C630        C  0.07133695  0.42346094  0.50009265    -0.07100
C631        C  0.06127079  0.37575177  0.50476645     0.13700
C632        C  0.09259085  0.34816896  0.52211345    -0.20600
C633        C  0.13330868  0.36711343  0.53595600    -0.07100
C634        C  0.14185172  0.41594158  0.53237417     0.13700
C635        C  0.18234763  0.44086383  0.54789014    -0.24000
H636        H  0.11772720  0.47997396  0.51106129     0.15000
H637        H  0.08470648  0.31139912  0.52484006     0.15000
C638        C  0.01736147  0.35304342  0.49240335    -0.23900
H639        H  0.18134339  0.47914296  0.54376182     0.05300
H640        H  0.21595661  0.42805659  0.53791490     0.08500
H641        H  0.18100305  0.43547596  0.57395712     0.08500
H642        H  0.99380251  0.37799299  0.48042964     0.08500
H643        H  0.99755022  0.33752421  0.51249426     0.08500
H644        H  0.02672634  0.32494156  0.47530283     0.05200
C645        C  0.93403190  0.61291274  0.53319768    -0.20600
C646        C  0.88536199  0.60538749  0.53175870    -0.07100
C647        C  0.86840684  0.56807519  0.51264059     0.13700
C648        C  0.90041521  0.53952253  0.49599723    -0.20600
C649        C  0.94887559  0.54688807  0.49807009    -0.07100
C650        C  0.96581900  0.58421781  0.51676830     0.13700
C651        C  0.01747819  0.59453056  0.51893165    -0.24000
H652        H  0.94755059  0.64128131  0.54761206     0.15000
H653        H  0.88763097  0.51109770  0.48130322     0.15000
C654        C  0.81683691  0.55872685  0.50880441    -0.23900
H655        H  0.02454822  0.62616803  0.53350041     0.05300
H656        H  0.03215786  0.60049212  0.49485929     0.08500
H657        H  0.03594697  0.56481242  0.53006335     0.08500
H658        H  0.79902737  0.59067533  0.50021454     0.08500
H659        H  0.80137838  0.54770962  0.53178180     0.08500
H660        H  0.81011009  0.53030684  0.49136488     0.05200
C661        C  0.07211787  0.60029786  0.93084031    -0.20600
C662        C  0.07930901  0.55212564  0.92729055    -0.07100
C663        C  0.11750460  0.53638431  0.90866300     0.13700
C664        C  0.14628934  0.56920618  0.89326791    -0.20600
C665        C  0.13880441  0.61758765  0.89643924    -0.07100
C666        C  0.10168661  0.63318422  0.91636702     0.13700
C667        C  0.09379252  0.68414899  0.92389965    -0.24000
H668        H  0.04335287  0.61226780  0.94561527     0.15000
H669        H  0.17480190  0.55664702  0.87851068     0.15000
C670        C  0.12993223  0.48547946  0.90517311    -0.23900
H671        H  0.06666689  0.68900605  0.94257990     0.05300
H672        H  0.08148576  0.70296499  0.90261052     0.08500
H673        H  0.12670287  0.70012246  0.93275507     0.08500
H674        H  0.10708137  0.46207811  0.91922728     0.08500
H675        H  0.12750662  0.47506459  0.87981232     0.08500
H676        H  0.16636494  0.47994914  0.91338402     0.05200
C677        C  0.95551118  0.37936877  0.93377565    -0.20600
C678        C  0.95499952  0.42742653  0.92715297    -0.07100
C679        C  0.92240848  0.44432627  0.90465079     0.13700
C680        C  0.89163231  0.41283215  0.88969569    -0.20600
C681        C  0.89192647  0.36481561  0.89654744    -0.07100
C682        C  0.92352758  0.34824853  0.91974019     0.13700
C683        C  0.92288089  0.29887315  0.93190764    -0.24000
H684        H  0.98027979  0.36604622  0.95090790     0.15000
H685        H  0.86755095  0.42583059  0.87204391     0.15000
C686        C  0.91899113  0.49548682  0.89644216    -0.23900
H687        H  0.91956685  0.29943443  0.95819522     0.05300
H688        H  0.95606726  0.28112914  0.92537987     0.08500
H689        H  0.89296588  0.27823417  0.92293770     0.08500
H690        H  0.95081578  0.50707189  0.88362266     0.08500
H691        H  0.91439223  0.51684611  0.91823466     0.08500
H692        H  0.88878301  0.50257582  0.88068240     0.05200
C693        C  0.62504735  0.03577544  0.49878305    -0.20600
C694        C  0.57623057  0.03932400  0.49882244    -0.07100
C695        C  0.55427389  0.07286400  0.51851673     0.13700
C696        C  0.58161110  0.10073780  0.53864629    -0.20600
C697        C  0.63057951  0.09620424  0.53982829    -0.07100
C698        C  0.65265768  0.06371729  0.51890997     0.13700
C699        C  0.70506410  0.05823967  0.51700317    -0.24000
H700        H  0.64152603  0.01029085  0.48327948     0.15000
H701        H  0.56420883  0.12563631  0.55408824     0.15000
C702        C  0.50195764  0.07994706  0.51805853    -0.23900
H703        H  0.71563792  0.03403134  0.49759299     0.05300
H704        H  0.71862119  0.04345124  0.53945064     0.08500
H705        H  0.72169187  0.09258353  0.51221359     0.08500
H706        H  0.48366175  0.04826890  0.52669799     0.08500
H707        H  0.49032570  0.08768804  0.49353610     0.08500
H708        H  0.49108487  0.10951900  0.53354421     0.05200
C709        C  0.44706745  0.85132785  0.53605978    -0.20600
C710        C  0.40025851  0.86492795  0.54127678    -0.07100
C711        C  0.38243007  0.90310130  0.52348384     0.13700
C712        C  0.41219440  0.92702771  0.50241022    -0.20600
C713        C  0.45884485  0.91359883  0.49783063    -0.07100
C714        C  0.47642487  0.87508934  0.51479820     0.13700
C715        C  0.52626420  0.85853622  0.51152761    -0.24000
H716        H  0.46163917  0.82235613  0.54918337     0.15000
H717        H  0.39935969  0.95756776  0.49014201     0.15000
C718        C  0.33237548  0.91932955  0.52609108    -0.23900
H719        H  0.52647017  0.82157285  0.50343957     0.05300
H720        H  0.54392192  0.86090311  0.53491031     0.08500
H721        H  0.54699151  0.87917353  0.49428467     0.08500
H722        H  0.32546413  0.93367001  0.55016458     0.08500
H723        H  0.30826194  0.88983171  0.52094232     0.08500
H724        H  0.32448897  0.94751225  0.50888951     0.05200
C725        C  0.43500785  0.11905959  0.03030858    -0.20600
C726        C  0.38687504  0.10945274  0.03390026    -0.07100
C727        C  0.36922771  0.06705357  0.02070210     0.13700
C728        C  0.40015740  0.03554484  0.00567112    -0.20600
C729        C  0.44779726  0.04584951  0.00179404    -0.07100
C730        C  0.46536121  0.08810374  0.01436041     0.13700
C731        C  0.51628269  0.10068093  0.01085580    -0.24000
H732        H  0.44931720  0.15101091  0.04017255     0.15000
H733        H  0.38690572  0.00275234  0.99642727     0.15000
C734        C  0.31781913  0.05504455  0.02101181    -0.23900
H735        H  0.52439441  0.13500525  0.02193617     0.05300
H736        H  0.52564642  0.10266360  0.98534132     0.08500
H737        H  0.53823900  0.07380433  0.02244425     0.08500
H738        H  0.29745964  0.08389514  0.01025158     0.08500
H739        H  0.30569379  0.04863385  0.04565210     0.08500
H740        H  0.31034354  0.02285810  0.00709297     0.05200
C741        C  0.36000619  0.34438959  0.10575175    -0.20600
C742        C  0.40730075  0.34452487  0.11423526    -0.07100
C743        C  0.43598539  0.30659045  0.10501955     0.13700
C744        C  0.41584093  0.26772542  0.08989811    -0.20600
C745        C  0.36751665  0.26528277  0.08422610    -0.07100
C746        C  0.33960826  0.30523102  0.09083609     0.13700
C747        C  0.28854813  0.30721116  0.08210680    -0.24000
H748        H  0.33843126  0.37405259  0.11227928     0.15000
H749        H  0.43765348  0.23783788  0.08433575     0.15000
C750        C  0.48780208  0.30649392  0.11167147    -0.23900
H751        H  0.27363379  0.34248843  0.08642009     0.05300
H752        H  0.26792808  0.28227723  0.09654046     0.08500
H753        H  0.28431664  0.29889570  0.05651022     0.08500
H754        H  0.49416000  0.30639866  0.13762058     0.08500
H755        H  0.50430164  0.33791547  0.10103997     0.08500
H756        H  0.50522044  0.27517055  0.10145474     0.05200
C757        C  0.08496199  0.36265226  0.38880371    -0.20600
C758        C  0.13355851  0.37048956  0.38803939    -0.07100
C759        C  0.15279836  0.40389962  0.40941058     0.13700
C760        C  0.12279583  0.42990523  0.42934632    -0.20600
C761        C  0.07422383  0.42306297  0.42899101    -0.07100
C762        C  0.05524625  0.38814272  0.40897164     0.13700
C763        C  0.00378448  0.37651665  0.40827893    -0.24000
H764        H  0.06960521  0.33674906  0.37313698     0.15000
H765        H  0.13721604  0.45651386  0.44486794     0.15000
C766        C  0.20474232  0.41179268  0.41222037    -0.23900
H767        H  0.99877324  0.33913431  0.41434765     0.05300
H768        H  0.98988286  0.38266246  0.38409095     0.08500
H769        H  0.98282759  0.39738759  0.42531793     0.08500
H770        H  0.21860245  0.42762534  0.39021346     0.08500
H771        H  0.22265763  0.37814434  0.41684785     0.08500
H772        H  0.21331203  0.43604090  0.43202651     0.05200
C773        C  0.30704026  0.31762786  0.31099091    -0.20600
C774        C  0.27238424  0.35134461  0.31724694    -0.07100
C775        C  0.28062707  0.39832928  0.30852679     0.13700
C776        C  0.32350153  0.41021367  0.29435615    -0.20600
C777        C  0.35749586  0.37623514  0.28780140    -0.07100
C778        C  0.34935721  0.32940806  0.29624408     0.13700
C779        C  0.38567994  0.29206443  0.29083354    -0.24000
H780        H  0.30099419  0.28161372  0.31770277     0.15000
H781        H  0.33034244  0.44621008  0.28786966     0.15000
C782        C  0.24405264  0.43569807  0.31262765    -0.23900
H783        H  0.37432759  0.25784750  0.30054113     0.05300
H784        H  0.41887936  0.30208270  0.30267853     0.08500
H785        H  0.39196517  0.28726521  0.26504602     0.08500
H786        H  0.23691146  0.44163891  0.33813950     0.08500
H787        H  0.21134730  0.42509007  0.30040646     0.08500
H788        H  0.25563682  0.46955218  0.30245363     0.05200
C789        C  0.64511627  0.05839652  0.39216167    -0.20600
C790        C  0.64124625  0.10648997  0.39872500    -0.07100
C791        C  0.60696542  0.12137735  0.42101910     0.13700
C792        C  0.57570331  0.08862576  0.43399175    -0.20600
C793        C  0.57968093  0.04060976  0.42760609    -0.07100
C794        C  0.61518560  0.02534306  0.40644604     0.13700
C795        C  0.62244561  0.97423352  0.39927097    -0.24000
H796        H  0.67131059  0.04653793  0.37530885     0.15000
H797        H  0.54895963  0.10062912  0.45037041     0.15000
C798        C  0.60369492  0.17078984  0.43337792    -0.23900
H799        H  0.65354083  0.96844351  0.38386397     0.05300
H800        H  0.59171096  0.95977015  0.38661446     0.08500
H801        H  0.62783816  0.95475947  0.42168662     0.08500
H802        H  0.57053256  0.18686843  0.42528232     0.08500
H803        H  0.63351192  0.19304740  0.42614562     0.08500
H804        H  0.60389691  0.17036716  0.45975644     0.05200
C805        C  0.59621246  0.29849581  0.31308064    -0.20600
C806        C  0.62751250  0.33462469  0.30559010    -0.07100
C807        C  0.67438045  0.33144783  0.31538092     0.13700
C808        C  0.68928512  0.29155618  0.33183883    -0.20600
C809        C  0.65847289  0.25430717  0.33851491    -0.07100
C810        C  0.61092808  0.25834491  0.32934256     0.13700
C811        C  0.57592333  0.21970888  0.33480833    -0.24000
H812        H  0.56028076  0.30106991  0.30511099     0.15000
H813        H  0.72567615  0.28888024  0.33871336     0.15000
C814        C  0.70899166  0.36931930  0.30729451    -0.23900
H815        H  0.54118824  0.22814180  0.32461247     0.05300
H816        H  0.57085820  0.21416832  0.36065011     0.08500
H817        H  0.58833952  0.18695071  0.32337695     0.08500
H818        H  0.69729977  0.40296118  0.31783970     0.08500
H819        H  0.71153631  0.37306748  0.28111278     0.08500
H820        H  0.74443655  0.36138602  0.31651325     0.05200
C821        C  0.12486195  0.54813240  0.99580254    -0.20600
C822        C  0.07630106  0.55394477  0.99755438    -0.07100
C823        C  0.05764862  0.58877920  0.01780780     0.13700
C824        C  0.08783287  0.61438825  0.03748918    -0.20600
C825        C  0.13651737  0.60712658  0.03703638    -0.07100
C826        C  0.15525856  0.57462025  0.01482366     0.13700
C827        C  0.20701961  0.56759917  0.01048158    -0.24000
H828        H  0.13903714  0.52191702  0.97981204     0.15000
H829        H  0.07283034  0.63985119  0.05368389     0.15000
C830        C  0.00624998  0.60047088  0.01890528    -0.23900
H831        H  0.21498590  0.54503935  0.98963155     0.05300
H832        H  0.22146437  0.54998283  0.03164505     0.08500
H833        H  0.22445474  0.60179641  0.00655725     0.08500
H834        H  0.99217703  0.59327579  0.04299492     0.08500
H835        H  0.98532442  0.58055093  0.00136905     0.08500
H836        H  0.00150637  0.63811714  0.01358683     0.05200
C837        C  0.27625733  0.61526082  0.14198668    -0.20600
C838        C  0.27351401  0.61751041  0.10876944    -0.07100
C839        C  0.31387547  0.60925636  0.09027530     0.13700
C840        C  0.35589776  0.59825880  0.10550309    -0.20600
C841        C  0.35890012  0.59686451  0.13873646    -0.07100
C842        C  0.31844625  0.60522847  0.15730584     0.13700
C843        C  0.31881070  0.60276420  0.19304423    -0.24000
H844        H  0.24524732  0.62255219  0.15606522     0.15000
H845        H  0.38697833  0.59162546  0.09135914     0.15000
C846        C  0.31348421  0.61415789  0.05473536    -0.23900
H847        H  0.28304066  0.60607302  0.20319897     0.05300
H848        H  0.33983686  0.63189028  0.20291245     0.08500
H849        H  0.33329715  0.56875593  0.20083384     0.08500
H850        H  0.30084323  0.64942776  0.04810106     0.08500
H851        H  0.29040154  0.58720543  0.04435067     0.08500
H852        H  0.34889514  0.60936680  0.04428609     0.05200
C853        C  0.19794618  0.13602329  0.14729287    -0.20600
C854        C  0.16968293  0.10310230  0.13169987    -0.07100
C855        C  0.17994133  0.09118494  0.09980016     0.13700
C856        C  0.21874769  0.11175501  0.08467606    -0.20600
C857        C  0.24778219  0.14385405  0.10051825    -0.07100
C858        C  0.23675854  0.15658005  0.13226821     0.13700
C859        C  0.26690491  0.18964983  0.15128935    -0.24000
H860        H  0.19025583  0.14482568  0.17181636     0.15000
H861        H  0.22708069  0.10194177  0.06044034     0.15000
C862        C  0.15194126  0.05498811  0.08203641    -0.23900
H863        H  0.25460691  0.19289225  0.17624919     0.05300
H864        H  0.26585640  0.22506250  0.14078757     0.08500
H865        H  0.30350678  0.17675348  0.15177383     0.08500
H866        H  0.11515862  0.06678318  0.07970794     0.08500
H867        H  0.15301869  0.02122968  0.09489156     0.08500
H868        H  0.16595177  0.04892372  0.05773927     0.05200
C869        C  0.16807566  0.14830611  0.30456134    -0.20600
C870        C  0.12123502  0.14452278  0.29543689    -0.07100
C871        C  0.09107704  0.18340611  0.29921453     0.13700
C872        C  0.10849726  0.22466809  0.31285570    -0.20600
C873        C  0.15513444  0.22817988  0.32269914    -0.07100
C874        C  0.18529097  0.18923354  0.31875484     0.13700
C875        C  0.23506188  0.18840466  0.33051349    -0.24000
H876        H  0.19093617  0.11832278  0.30192390     0.15000
H877        H  0.08581003  0.25480549  0.31521895     0.15000
C878        C  0.04120566  0.18269993  0.28756492    -0.23900
H879        H  0.23994142  0.15776017  0.34622522     0.05300
H880        H  0.24465018  0.21958713  0.34467390     0.08500
H881        H  0.25942359  0.18528564  0.31002137     0.08500
H882        H  0.01965881  0.15846312  0.30188884     0.08500
H883        H  0.04032827  0.17194604  0.26221709     0.08500
H884        H  0.02463996  0.21766970  0.28950198     0.05200
C885        C  0.85604466  0.09132769  0.33472783    -0.20600
C886        C  0.87006338  0.11352333  0.30663247    -0.07100
C887        C  0.84507919  0.15276801  0.29598596     0.13700
C888        C  0.80451112  0.16655553  0.31222315    -0.20600
C889        C  0.78776587  0.14224095  0.33904896    -0.07100
C890        C  0.81527154  0.10507251  0.35115250     0.13700
C891        C  0.80242501  0.07948062  0.38113788    -0.24000
H892        H  0.87572718  0.06143044  0.34296511     0.15000
H893        H  0.78497085  0.19584454  0.30297781     0.15000
C894        C  0.86128102  0.18056709  0.26761084    -0.23900
H895        H  0.82988478  0.05410381  0.38804162     0.05300
H896        H  0.76959481  0.05942324  0.37767940     0.08500
H897        H  0.79822378  0.10477445  0.40099657     0.08500
H898        H  0.85970943  0.15913954  0.24569050     0.08500
H899        H  0.89778433  0.19263835  0.27139223     0.08500
H900        H  0.83913261  0.21185541  0.26375969     0.05200
C901        C  0.16806983  0.81014181  0.14467447    -0.20600
C902        C  0.12175415  0.82357782  0.13964324    -0.07100
C903        C  0.09342916  0.79661131  0.11888713     0.13700
C904        C  0.11193175  0.75600608  0.10486482    -0.20600
C905        C  0.15819288  0.74179266  0.11045289    -0.07100
C906        C  0.18703552  0.77029216  0.13023371     0.13700
C907        C  0.23817939  0.76044792  0.13622148    -0.24000
H908        H  0.19007379  0.83146990  0.15981746     0.15000
H909        H  0.08973372  0.73497733  0.08964986     0.15000
C910        C  0.04342627  0.80947692  0.11173305    -0.23900
H911        H  0.25528530  0.78888876  0.14996681     0.05300
H912        H  0.25727714  0.75733750  0.11330652     0.08500
H913        H  0.24208587  0.72812356  0.15039297     0.08500
H914        H  0.04230874  0.84325365  0.09895086     0.08500
H915        H  0.02295641  0.81201620  0.13412571     0.08500
H916        H  0.02614398  0.78305261  0.09633253     0.05200
C917        C  0.98142564  0.39488411  0.01713022    -0.20600
C918        C  0.95787145  0.42843085  0.99906655    -0.07100
C919        C  0.90889346  0.43270698  0.00228215     0.13700
C920        C  0.88491099  0.40336840  0.02344337    -0.20600
C921        C  0.90844494  0.37054950  0.04240692    -0.07100
C922        C  0.95765986  0.36589911  0.03869009     0.13700
C923        C  0.98612416  0.33190819  0.05783594    -0.24000
H924        H  0.01908021  0.39196545  0.01463055     0.15000
H925        H  0.84735149  0.40712252  0.02557371     0.15000
C926        C  0.88096089  0.46894712  0.98486092    -0.23900
H927        H  0.02413708  0.33493643  0.05264247     0.05300
H928        H  0.97560217  0.29555402  0.05200015     0.08500
H929        H  0.98113015  0.33882860  0.08357817     0.08500
H930        H  0.90313016  0.49281361  0.97074384     0.08500
H931        H  0.86126865  0.49069908  0.00221133     0.08500
H932        H  0.85575732  0.45139427  0.96872252     0.05200
C933        C  0.93425400  0.22785392  0.11838158    -0.20600
C934        C  0.88623145  0.23385342  0.11314101    -0.07100
C935        C  0.85487568  0.19714365  0.12097711     0.13700
C936        C  0.87245412  0.15592071  0.13417383    -0.20600
C937        C  0.92043222  0.14976078  0.13898990    -0.07100
C938        C  0.95187045  0.18631127  0.13117427     0.13700
C939        C  0.00371826  0.18289526  0.13727380    -0.24000
H940        H  0.95814693  0.25608879  0.11273928     0.15000
H941        H  0.84862720  0.12773712  0.14009195     0.15000
C942        C  0.80312091  0.19994790  0.11431768    -0.23900
H943        H  0.02168409  0.21682117  0.13332325     0.05300
H944        H  0.01996820  0.15740067  0.12079859     0.08500
H945        H  0.01006148  0.17243357  0.16223537     0.08500
H946        H  0.79741124  0.20853324  0.08894533     0.08500
H947        H  0.78649693  0.22676056  0.12970482     0.08500
H948        H  0.78509537  0.16631689  0.11918308     0.05200
C949        C  0.69311815  0.39483791  0.10507438    -0.20600
C950        C  0.68050196  0.38436817  0.13651584    -0.07100
C951        C  0.71227284  0.35965493  0.15580898     0.13700
C952        C  0.75578164  0.34658841  0.14313562    -0.20600
C953        C  0.76847984  0.35715043  0.11166599    -0.07100
C954        C  0.73645310  0.38145863  0.09231938     0.13700
C955        C  0.74662290  0.39213672  0.05797081    -0.24000
H956        H  0.66859361  0.41316049  0.09008315     0.15000
H957        H  0.78015870  0.32781256  0.15801471     0.15000
C958        C  0.70129424  0.34757120  0.18985597    -0.23900
H959        H  0.71617058  0.40837433  0.04603164     0.05300
H960        H  0.75525295  0.35944453  0.04494614     0.08500
H961        H  0.77614935  0.41717390  0.05631098     0.08500
H962        H  0.67089550  0.32345368  0.19086035     0.08500
H963        H  0.69347515  0.37985421  0.20357115     0.08500
H964        H  0.73107825  0.32982318  0.20157705     0.05200
C965        C  0.43480534  0.84464594  0.39854423    -0.20600
C966        C  0.38761982  0.85875554  0.39606254    -0.07100
C967        C  0.37495908  0.90304086  0.40924770     0.13700
C968        C  0.40917067  0.93081182  0.42408513    -0.20600
C969        C  0.45540009  0.91579579  0.42708436    -0.07100
C970        C  0.46858278  0.87247858  0.41388168     0.13700
C971        C  0.51829608  0.85554403  0.41608371    -0.24000
H972        H  0.44563547  0.81145466  0.38855197     0.15000
H973        H  0.39971828  0.96463150  0.43379141     0.15000
C974        C  0.32586723  0.92214274  0.40834178    -0.23900
H975        H  0.52297897  0.82109913  0.40427794     0.05300
H976        H  0.52825607  0.85182778  0.44133655     0.08500
H977        H  0.54216822  0.88094655  0.40447943     0.08500
H978        H  0.30134794  0.89766684  0.42023998     0.08500
H979        H  0.31539170  0.92812967  0.38339692     0.08500
H980        H  0.32290477  0.95623944  0.42087153     0.05200
C981        C  0.22797047  0.87953994  0.34263833    -0.20600
C982        C  0.23198346  0.83116138  0.34754609    -0.07100
C983        C  0.19295578  0.80217090  0.34037865     0.13700
C984        C  0.15321739  0.82177412  0.32592901    -0.20600
C985        C  0.15158359  0.86931692  0.31845337    -0.07100
C986        C  0.18847626  0.89891282  0.32815994     0.13700
C987        C  0.18688944  0.95092249  0.32255168    -0.24000
H988        H  0.25703802  0.90226714  0.34833189     0.15000
H989        H  0.12437442  0.79945111  0.31885634     0.15000
C990        C  0.19268313  0.75066195  0.34760309    -0.23900
H991        H  0.21779655  0.96898743  0.33280997     0.05300
H992        H  0.15503151  0.96582056  0.33381935     0.08500
H993        H  0.18647998  0.95841986  0.29675271     0.08500
H994        H  0.15773773  0.73484466  0.34334697     0.08500
H995        H  0.20165274  0.74505073  0.37292193     0.08500
H996        H  0.21796163  0.73200820  0.33208541     0.05200
C997        C  0.37852063  0.67918560  0.35478159    -0.20600
C998        C  0.35516731  0.71260154  0.33637963    -0.07100
C999        C  0.34922684  0.70402322  0.30349532     0.13700
C1000       C  0.36664252  0.66264394  0.29011481    -0.20600
C1001       C  0.39183514  0.63002956  0.30800888    -0.07100
C1002       C  0.39696679  0.63798820  0.34108808     0.13700
C1003       C  0.42302465  0.60457703  0.36203236    -0.24000
H1004       H  0.38282107  0.68568031  0.37996664     0.15000
H1005       H  0.36277305  0.65710709  0.26477472     0.15000
C1006       C  0.32785293  0.73878184  0.28094048    -0.23900
H1007       H  0.42506624  0.61747638  0.38689574     0.05300
H1008       H  0.45935754  0.59998265  0.35317559     0.08500
H1009       H  0.40451440  0.57051505  0.36252724     0.08500
H1010       H  0.32038316  0.77319435  0.29177880     0.08500
H1011       H  0.29492863  0.72420521  0.27107601     0.08500
H1012       H  0.35258405  0.74542021  0.26105670     0.05200
C1013       C  0.58969015  0.85671172  0.03468895    -0.20600
C1014       C  0.63817559  0.86412761  0.03136060    -0.07100
C1015       C  0.65370055  0.90010187  0.01063814     0.13700
C1016       C  0.62069186  0.92885230  0.99573158    -0.20600
C1017       C  0.57243113  0.92180246  0.99951143    -0.07100
C1018       C  0.55677491  0.88444653  0.01873206     0.13700
C1019       C  0.50581926  0.87184826  0.02235728    -0.24000
H1020       H  0.57708740  0.82898966  0.04995111     0.15000
H1021       H  0.63267595  0.95709808  0.98069307     0.15000
C1022       C  0.70467901  0.90772064  0.00277999    -0.23900
H1023       H  0.50052035  0.83487381  0.01512768     0.05300
H1024       H  0.48241548  0.89339062  0.00754537     0.08500
H1025       H  0.49515805  0.87598495  0.04758279     0.08500
H1026       H  0.72060252  0.87446722  0.99449898     0.08500
H1027       H  0.72367050  0.92118650  0.02374521     0.08500
H1028       H  0.70941915  0.93381284  0.98358524     0.05200
C1029       C  0.68257016  0.65013595  0.12580627    -0.20600
C1030       C  0.63474525  0.64031901  0.12518242    -0.07100
C1031       C  0.60456501  0.66934184  0.10771186     0.13700
C1032       C  0.62280350  0.70881707  0.09224357    -0.20600
C1033       C  0.67065323  0.72048629  0.09391971    -0.07100
C1034       C  0.70121675  0.68944360  0.11031343     0.13700
C1035       C  0.75347496  0.69672420  0.11208071    -0.24000
H1036       H  0.70532930  0.62752379  0.13936309     0.15000
H1037       H  0.59897369  0.73153450  0.07970496     0.15000
C1038       C  0.55278062  0.65951741  0.10624016    -0.23900
H1039       H  0.77137222  0.66682054  0.12351920     0.05300
H1040       H  0.76164395  0.72812558  0.12657145     0.08500
H1041       H  0.76829846  0.70024628  0.08780638     0.08500
H1042       H  0.53752092  0.66017012  0.13051324     0.08500
H1043       H  0.54672053  0.62462672  0.09540376     0.08500
H1044       H  0.53407430  0.68580686  0.09174397     0.05200
C1045       C  0.82559966  0.81762129  0.09294168    -0.20600
C1046       C  0.78643545  0.84711734  0.09030547    -0.07100
C1047       C  0.78879770  0.89295890  0.10291544     0.13700
C1048       C  0.82937812  0.90727752  0.11874390    -0.20600
C1049       C  0.86752457  0.87713302  0.12258427    -0.07100
C1050       C  0.86624040  0.83221166  0.10890476     0.13700
C1051       C  0.90672173  0.79912536  0.11240099    -0.24000
H1052       H  0.82378832  0.78247128  0.08335109     0.15000
H1053       H  0.83075038  0.94187977  0.12927760     0.15000
C1054       C  0.74785250  0.92605900  0.10186473    -0.23900
H1055       H  0.89973847  0.76502839  0.10064542     0.05300
H1056       H  0.91344608  0.79261890  0.13794261     0.08500
H1057       H  0.93844520  0.81459968  0.10138687     0.08500
H1058       H  0.71671232  0.90969331  0.11309097     0.08500
H1059       H  0.73993495  0.93526241  0.07696987     0.08500
H1060       H  0.75521474  0.95918701  0.11474570     0.05200
C1061       C  0.95846764  0.59659523  0.43099609    -0.20600
C1062       C  0.95430956  0.54802230  0.42733022    -0.07100
C1063       C  0.92129021  0.52980768  0.40570902     0.13700
C1064       C  0.89414272  0.56054516  0.38782933    -0.20600
C1065       C  0.89829867  0.60923435  0.39114578    -0.07100
C1066       C  0.93051589  0.62751356  0.41351917     0.13700
C1067       C  0.93454360  0.67912495  0.42017565    -0.24000
H1068       H  0.98367884  0.61038624  0.44771917     0.15800
H1069       H  0.86970863  0.54616735  0.37083288     0.15000
C1070       C  0.91351272  0.47796906  0.40188467    -0.23900
H1071       H  0.95871336  0.68647318  0.44018129     0.05300
H1072       H  0.89969785  0.69345089  0.42664226     0.08500
H1073       H  0.94850599  0.69751835  0.39908898     0.08500
H1074       H  0.90558354  0.46212528  0.42530690     0.08500
H1075       H  0.94496634  0.46128804  0.39146843     0.08500
H1076       H  0.88378051  0.47019015  0.38579494     0.05200
C1077       C  0.72292383  0.65975799  0.31417380    -0.20600
C1078       C  0.75401926  0.62787309  0.32826390    -0.07100
C1079       C  0.74224610  0.57972547  0.32828912     0.13700
C1080       C  0.70071119  0.56520606  0.31375686    -0.20600
C1081       C  0.67039795  0.59701244  0.29920679    -0.07100
C1082       C  0.68141703  0.64503980  0.29964466     0.13700
C1083       C  0.64928073  0.68117229  0.28566829    -0.24000
H1084       H  0.73110635  0.69672798  0.31437474     0.15000
H1085       H  0.69232013  0.52829959  0.31328783     0.15000
C1086       C  0.77321125  0.54280787  0.34254674    -0.23900
H1087       H  0.66248475  0.71723075  0.28964897     0.05300
H1088       H  0.61414173  0.67856503  0.29686274     0.08500
H1089       H  0.64635746  0.67583697  0.25964904     0.08500
H1090       H  0.77687889  0.54888316  0.36845718     0.08500
H1091       H  0.80797484  0.54330352  0.33073307     0.08500
H1092       H  0.75851236  0.50713989  0.33944679     0.05200
C1093       C  0.83856776  0.78451713  0.31986636    -0.20600
C1094       C  0.87257435  0.75006684  0.32544704    -0.07100
C1095       C  0.91918286  0.75771270  0.31533157     0.13700
C1096       C  0.93056732  0.79995928  0.30054057    -0.20600
C1097       C  0.89649178  0.83404761  0.29493284    -0.07100
C1098       C  0.84994381  0.82641962  0.30464056     0.13700
C1099       C  0.81265087  0.86285924  0.29999114    -0.24000
H1100       H  0.80277428  0.77858504  0.32747800     0.15000
H1101       H  0.96632904  0.80637016  0.29301781     0.15000
C1102       C  0.95666740  0.72111890  0.31871627    -0.23900
H1103       H  0.77855190  0.85175100  0.31022709     0.05300
H1104       H  0.80740073  0.86911130  0.27429375     0.08500
H1105       H  0.82320145  0.89597969  0.31178672     0.08500
H1106       H  0.94534601  0.68814591  0.30705891     0.08500
H1107       H  0.96381456  0.71474049  0.34415562     0.08500
H1108       H  0.99010738  0.73217973  0.30750095     0.05200
loop_ 
_geom_bond_atom_site_label_1 
_geom_bond_atom_site_label_2 
_geom_bond_distance 
_geom_bond_site_symmetry_2 
_ccdc_geom_bond_type 
C1            N2   1.352       .  A
C1            N6   1.356       .  A
C1         C1078   1.487       .  S
N2            C3   1.352       .  A
C3            N4   1.359       .  A
C3         C1094   1.475       .  S
N4            C5   1.359       .  A
C5            N6   1.360       .  A
C5         C1065   1.486       .  S
C7            N8   1.353       .  A
C7           N12   1.356       .  A
C7         C1046   1.481       .  S
N8            C9   1.355       .  A
C9           N10   1.366       .  A
C9         C1033   1.502       .  S
N10          C11   1.366       .  A
C11          N12   1.359       .  A
C11        C1014   1.498       .  S
C13          N14   1.362       .  A
C13          N18   1.358       .  A
C13         C998   1.485       .  S
N14          C15   1.365       .  A
C15          N16   1.360       .  A
C15         C966   1.508       .  S
N16          C17   1.360       .  A
C17          N18   1.356       .  A
C17         C982   1.494       .  S
C19          N20   1.351       .  A
C19          N24   1.360       .  A
C19         C934   1.481       .  S
N20          C21   1.352       .  A
C21          N22   1.359       .  A
C21         C953   1.482       .  S
N22          C23   1.362       .  A
C23          N24   1.362       .  A
C23         C921   1.497       .  S
C25          N43   1.347       .  A
C25          C62   1.465       .  S
C25         C985   1.476       .  S
N26          N43   1.321       .  A
N26          N48   1.317       .  A
N26         Co63   2.072       .  S
C27          N52   1.334       .  A
C27          C65   1.455       .  S
C27          H72   1.081       .  S
H28          C69   1.081       .  S
C29          N53   1.346       .  A
C29          C33   1.466       .  S
C29          H58   1.082       .  S
Co30         N48   2.089       .  S
Co30         N38   2.061   1_455  S
Co30         N70   2.055   1_565  S
Co30         N46   2.090   1_465  S
Co30        Cl74   2.462       .  S
N31          C69   1.343       .  A
N31          N38   1.323       .  A
N31         Co32   2.103       .  S
Co32         N35   2.062       .  S
Co32         N52   2.056   1_565  S
Co32         N39   2.106   1_565  S
Co32        Cl74   2.431   1_655  S
C33          N71   1.346       .  A
C33        C1049   1.474       .  S
N34          N41   1.322       .  A
N34          N64   1.320       .  A
N34         Co67   2.058       .  S
N35          N53   1.316       .  A
N35          N71   1.319       .  A
N36          C65   1.354       .  A
N36          N46   1.327       .  A
H37          C62   1.082       .  S
N38          N59   1.319       .  A
N39          N57   1.321       .  A
N39          N44   1.326       .  A
C40          N44   1.355       .  A
C40          C68   1.453       .  S
C40         C937   1.475       .  S
N41          C56   1.343       .  A
N41         Co63   2.113       .  S
C42          N70   1.332       .  A
C42          C45   1.448       .  S
C42          H76   1.081       .  S
C45          N66   1.356       .  A
C45         C870   1.474       .  S
N46          N52   1.315       .  A
N47          C73   1.336       .  A
N47          N49   1.316       .  A
N47         Co63   2.063   1_545  S
N48          C62   1.346       .  A
N49          N77   1.328       .  A
N49         Co67   2.093   1_545  S
H50          C73   1.082       .  S
H51          C68   1.080       .  S
N53         Co67   2.090   1_655  S
N54          N66   1.329       .  A
N54          N70   1.321       .  A
N54         Co63   2.116   1_545  S
C55          N59   1.343       .  A
C55          C69   1.463       .  S
C55        C1097   1.465       .  S
C56          C75   1.471       .  S
C56          H60   1.081       .  S
N57          C68   1.334       .  A
N57         Co67   2.060   1_645  S
C61          N77   1.354       .  A
C61          C73   1.455       .  S
C61         C854   1.484       .  S
Co63        Cl74   2.431       .  S
N64          C75   1.343       .  A
C65         C886   1.476       .  S
Co67        Cl74   2.463       .  S
C75         C902   1.482       .  S
C78          N79   1.346       .  A
C78          N83   1.358       .  A
C78         C838   1.470       .  S
N79          C80   1.347       .  A
C80          N81   1.363       .  A
C80         C905   1.493       .  S
N81          C82   1.367       .  A
C82          N83   1.363       .  A
C82         C825   1.494       .  S
C84          N85   1.363       .  A
C84          N89   1.358       .  A
C84         C889   1.499       .  S
N85          C86   1.364       .  A
C86          N87   1.362       .  A
C86         C790   1.495       .  S
N87          C88   1.359       .  A
C88          N89   1.355       .  A
C88         C809   1.492       .  S
C90          N91   1.364       .  A
C90          N95   1.364       .  A
C90         C758   1.497       .  S
N91          C92   1.360       .  A
C92          N93   1.350       .  A
C92         C873   1.477       .  S
N93          C94   1.353       .  A
C94          N95   1.361       .  A
C94         C774   1.481       .  S
C96          N97   1.365       .  A
C96         N101   1.361       .  A
C96         C726   1.506       .  S
N97          C98   1.364       .  A
C98          N99   1.357       .  A
C98         C745   1.491       .  S
N99         C100   1.356       .  A
C100        N101   1.360       .  A
C100        C857   1.489       .  S
C102        N120   1.353       .  A
C102        C139   1.454       .  S
C102       C1081   1.475       .  S
N103        N120   1.325       .  A
N103        N125   1.322       .  A
N103       Co140   2.099       .  S
C104        N129   1.341       .  A
C104        C142   1.462       .  S
C104        H149   1.081       .  S
H105        C146   1.082       .  S
C106        N130   1.335       .  A
C106        C110   1.457       .  S
C106        H135   1.081       .  S
Co107       N125   2.062       .  S
Co107       N115   2.099       .  S
Co107       N147   2.096       .  S
Co107       N123   2.064       .  S
Co107      Cl151   2.462       .  S
N108        C146   1.337       .  A
N108        N115   1.317       .  A
N108       Co109   2.065       .  S
Co109       N112   2.100       .  S
Co109       N129   2.097       .  S
Co109       N116   2.068       .  S
Co109      Cl151   2.434       .  S
C110        N148   1.353       .  A
C110        C950   1.480       .  S
N111        N118   1.317       .  A
N111        N141   1.327       .  A
N111       Co144   2.090       .  S
N112        N130   1.321       .  A
N112        N148   1.325       .  A
N113        C142   1.344       .  A
N113        N123   1.320       .  A
H114        C139   1.081       .  S
N115        N136   1.329       .  A
N116        N134   1.317       .  A
N116        N121   1.321       .  A
C117        N121   1.346       .  A
C117        C145   1.466       .  S
C117        C742   1.479       .  S
N118        C133   1.338       .  A
N118       Co140   2.070       .  S
C119        N147   1.348       .  A
C119        C122   1.473       .  S
C119        H153   1.079       .  S
C122        N143   1.348       .  A
C122       C1001   1.493       .  S
N123        N129   1.323       .  A
N124        C150   1.340       .  A
N124        N126   1.322       .  A
N124       Co140   2.096       .  S
N125        C139   1.332       .  A
N126        N154   1.320       .  A
N126       Co144   2.071       .  S
H127        C150   1.079       .  S
H128        C145   1.082       .  S
N130       Co144   2.069       .  S
N131        N143   1.321       .  A
N131        N147   1.316       .  A
N131       Co140   2.069       .  S
C132        N136   1.355       .  A
C132        C146   1.454       .  S
C132        C806   1.478       .  S
C133        C152   1.456       .  S
C133        H137   1.082       .  S
N134        C145   1.347       .  A
N134       Co144   2.093       .  S
C138        N154   1.347       .  A
C138        C150   1.463       .  S
C138        C841   1.473       .  S
Co140      Cl151   2.436       .  S
N141        C152   1.352       .  A
C142        C777   1.467       .  S
Co144      Cl151   2.465       .  S
C152       C1030   1.475       .  S
C155        C713   1.486       .  S
C155        C156   1.413       .  A
C155        C160   1.396       .  A
C156        C969   1.487       .  S
C156        C157   1.411       .  A
C157        H162   1.083       .  S
C157        C158   1.413   1_565  A
C158        C793   1.500       .  S
C158        C159   1.419       .  A
C159        C694   1.485       .  S
C159        C160   1.400   1_545  A
C160        H161   1.085       .  S
C163        C678   1.499       .  S
C163        C164   1.422       .  A
C163        C168   1.413   1_655  A
C164        C918   1.488       .  S
C164        C165   1.401   1_655  A
C165        H170   1.085   1_556  S
C165        C166   1.399       .  A
C166        C822   1.487       .  S
C166        C167   1.412       .  A
C167        C662   1.492       .  S
C167        C168   1.409       .  A
C168        H169   1.082       .  S
C171       C1062   1.486       .  S
C171        C172   1.415       .  A
C171        C176   1.404   1_655  A
C172        C649   1.491       .  S
C172        C173   1.406   1_655  A
C173        H178   1.084       .  S
C173        C174   1.405       .  A
C174        C630   1.482       .  S
C174        C175   1.413       .  A
C175        C761   1.489       .  S
C175        C176   1.402       .  A
C176        H177   1.084       .  S
C179       C1017   1.494       .  S
C179        C180   1.416       .  A
C179        C184   1.415       .  A
C180        C614   1.490       .  S
C180        C181   1.400       .  A
C181        H186   1.084       .  S
C181        C182   1.403   1_565  A
C182        C598   1.484       .  S
C182        C183   1.415       .  A
C183        C729   1.496   1_556  S
C183        C184   1.412   1_545  A
C184        H185   1.083   1_556  S
C187        N188   1.358       .  A
C187        N192   1.350       .  A
C187        C566   1.476       .  S
N188        C189   1.361       .  A
C189        N190   1.367       .  A
C189        C617   1.500       .  S
N190        C191   1.364       .  A
C191        N192   1.350       .  A
C191        C582   1.479       .  S
C193        N194   1.359       .  A
C193        N198   1.356       .  A
C193        C550   1.498       .  S
N194        C195   1.362       .  A
C195        N196   1.365       .  A
C195        C681   1.492       .  S
N196        C197   1.363       .  A
C197        N198   1.357       .  A
C197        C534   1.500       .  S
C199        N200   1.364       .  A
C199        N204   1.361       .  A
C199        C601   1.491       .  S
N200        C201   1.363       .  A
C201        N202   1.348       .  A
C201        C521   1.483       .  S
N202        C203   1.349       .  A
C203        N204   1.356       .  A
C203        C502   1.482       .  S
C205        N206   1.355       .  A
C205        N210   1.355       .  A
C205        C486   1.482       .  S
N206        C207   1.358       .  A
C207        N208   1.366       .  A
C207        C470   1.500       .  S
N208        C209   1.365       .  A
C209        N210   1.357       .  A
C209        C665   1.495       .  S
C211        N212   1.361       .  A
C211        N216   1.367       .  A
C211        C633   1.502       .  S
N212        C213   1.358       .  A
C213        N214   1.348       .  A
C213        C454   1.486       .  S
N214        C215   1.354       .  A
C215        N216   1.363       .  A
C215        C441   1.493       .  S
C217        N218   1.360       .  A
C217        N222   1.354       .  A
C217        C406   1.483       .  S
N218        C219   1.364       .  A
C219        N220   1.358       .  A
C219        C697   1.495       .  S
N220        C221   1.357       .  A
C221        N222   1.352       .  A
C221        C422   1.472       .  S
C223        N241   1.346       .  A
C223        C260   1.468       .  S
C223        C473   1.481       .  S
N224        N241   1.321       .  A
N224        N246   1.317       .  A
N224       Co261   2.068       .  S
C225        N250   1.336       .  A
C225        C263   1.454       .  S
C225        H270   1.082       .  S
H226        C267   1.081       .  S
C227        N251   1.347       .  A
C227        C231   1.473       .  S
C227        H256   1.079       .  S
Co228       N246   2.095       .  S
Co228       N236   2.060       .  S
Co228       N268   2.058       .  S
Co228       N244   2.090       .  S
Co228      Cl272   2.463       .  S
N229        C267   1.343       .  A
N229        N236   1.322       .  A
N229       Co230   2.109       .  S
Co230       N233   2.069       .  S
Co230       N250   2.066       .  S
Co230       N237   2.114       .  S
Co230      Cl272   2.434       .  S
C231        N269   1.347       .  A
C231        C390   1.491       .  S
N232        N239   1.322       .  A
N232        N262   1.321       .  A
N232       Co265   2.070       .  S
N233        N251   1.316       .  A
N233        N269   1.322       .  A
N234        C263   1.353       .  A
N234        N244   1.327       .  A
H235        C260   1.081       .  S
N236        N257   1.319       .  A
N237        N255   1.321       .  A
N237        N242   1.327       .  A
C238        N242   1.357       .  A
C238        C266   1.454       .  S
C238        C409   1.486       .  S
N239        C254   1.339       .  A
N239       Co261   2.098       .  S
C240        N268   1.331       .  A
C240        C243   1.452       .  S
C240        H274   1.081       .  S
C243        N264   1.355       .  A
C243        C505   1.477       .  S
N244        N250   1.317       .  A
N245        C271   1.336       .  A
N245        N247   1.317       .  A
N245       Co261   2.062       .  S
N246        C260   1.347       .  A
N247        N275   1.326       .  A
N247       Co265   2.087       .  S
H248        C271   1.082       .  S
H249        C266   1.081       .  S
N251       Co265   2.096       .  S
N252        N264   1.327       .  A
N252        N268   1.321       .  A
N252       Co261   2.106       .  S
C253        N257   1.344       .  A
C253        C267   1.469       .  S
C253        C569   1.480       .  S
C254        C273   1.466       .  S
C254        H258   1.078       .  S
N255        C266   1.335       .  A
N255       Co265   2.065       .  S
C259        N275   1.351       .  A
C259        C271   1.455       .  S
C259        C457   1.469       .  S
Co261      Cl272   2.436       .  S
N262        C273   1.348       .  A
C263        C553   1.473       .  S
Co265      Cl272   2.463       .  S
C273        C374   1.479       .  S
C276        N277   1.356       .  A
C276        N281   1.359       .  A
C276        C358   1.490       .  S
N277        C278   1.357       .  A
C278        N279   1.364       .  A
C278        C393   1.492       .  S
N279        C280   1.365       .  A
C280        N281   1.362       .  A
C280        C646   1.498       .  S
C282        N283   1.350       .  A
C282        N287   1.359       .  A
C282        C342   1.477       .  S
N283        C284   1.352       .  A
C284        N285   1.358       .  A
C284        C377   1.476       .  S
N285        C286   1.364       .  A
C286        N287   1.362       .  A
C286        C710   1.500       .  S
C288        N306   1.356       .  A
C288        C325   1.449       .  S
C288        C585   1.473       .  S
N289        N306   1.328       .  A
N289        N311   1.322       .  A
N289       Co326   2.115   1_655  S
C290        N315   1.343       .  A
C290        C328   1.472       .  S
C290        H335   1.081       .  S
H291        C332   1.081       .  S
C292        N316   1.331       .  A
C292        C296   1.450       .  S
C292        H321   1.079       .  S
Co293       N311   2.056   1_455  S
Co293       N301   2.098   1_465  S
Co293       N333   2.093       .  S
Co293       N309   2.054   1_565  S
Co293      Cl337   2.466       .  S
N294        C332   1.336       .  A
N294        N301   1.316       .  A
N294       Co295   2.063   1_655  S
Co295       N298   2.115   1_455  S
Co295       N315   2.108       .  S
Co295       N302   2.054       .  S
Co295      Cl337   2.425   1_545  S
C296        N334   1.357       .  A
C296        C425   1.472       .  S
N297        N304   1.317       .  A
N297        N327   1.328       .  A
N297       Co330   2.091   1_655  S
N298        N316   1.321       .  A
N298        N334   1.326       .  A
N299        C328   1.344       .  A
N299        N309   1.319       .  A
H300        C325   1.080       .  S
N301        N322   1.329       .  A
N302        N320   1.316       .  A
N302        N307   1.317       .  A
C303        N307   1.342       .  A
C303        C331   1.466       .  S
C303        C438   1.468       .  S
N304        C319   1.336       .  A
N304       Co326   2.067   1_655  S
C305        N333   1.346       .  A
C305        C308   1.466       .  S
C305        H339   1.081       .  S
C308        N329   1.346       .  A
C308        C489   1.475       .  S
N309        N315   1.319       .  A
N310        C336   1.345       .  A
N310        N312   1.322       .  A
N310       Co326   2.115       .  S
N311        C325   1.332       .  A
N312        N340   1.319       .  A
N312       Co330   2.056       .  S
H313        C336   1.081       .  S
H314        C331   1.082       .  S
N316       Co330   2.050   1_645  S
N317        N329   1.320       .  A
N317        N333   1.317       .  A
N317       Co326   2.063       .  S
C318        N322   1.356       .  A
C318        C332   1.456       .  S
C318        C537   1.482       .  S
C319        C338   1.456       .  S
C319        H323   1.082       .  S
N320        C331   1.345       .  A
N320       Co330   2.088   1_545  S
C324        N340   1.343       .  A
C324        C336   1.469       .  S
C324        C345   1.479       .  S
Co326      Cl337   2.428       .  S
N327        C338   1.354       .  A
C328        C518   1.487       .  S
Co330      Cl337   2.468       .  S
C338        C361   1.476       .  S
C341        H348   1.084       .  S
C341        C342   1.401       .  A
C341        C346   1.403       .  A
C342        C343   1.417       .  A
C343        C344   1.402       .  A
C343        C350   1.508       .  S
C344        H349   1.083       .  S
C344        C345   1.400       .  A
C345        C346   1.418       .  A
C346        C347   1.508       .  S
C347        H351   1.111       .  S
C347        H352   1.109       .  S
C347        H353   1.110       .  S
C350        H354   1.111       .  S
C350        H355   1.107       .  S
C350        H356   1.111       .  S
C357        H364   1.084       .  S
C357        C358   1.406       .  A
C357        C362   1.404       .  A
C358        C359   1.420       .  A
C359        C360   1.407       .  A
C359        C366   1.508       .  S
C360        H365   1.084       .  S
C360        C361   1.399       .  A
C361        C362   1.413       .  A
C362        C363   1.509       .  S
C363        H367   1.111       .  S
C363        H368   1.109       .  S
C363        H369   1.110       .  S
C366        H370   1.108       .  S
C366        H371   1.111       .  S
C366        H372   1.111       .  S
C373        H380   1.084       .  S
C373        C374   1.407       .  A
C373        C378   1.404       .  A
C374        C375   1.415       .  A
C375        C376   1.399       .  A
C375        C382   1.508       .  S
C376        H381   1.083       .  S
C376        C377   1.403       .  A
C377        C378   1.411       .  A
C378        C379   1.507       .  S
C379        H383   1.111       .  S
C379        H384   1.110       .  S
C379        H385   1.110       .  S
C382        H386   1.110       .  S
C382        H387   1.107       .  S
C382        H388   1.111       .  S
C389        H396   1.085       .  S
C389        C390   1.404       .  A
C389        C394   1.406       .  A
C390        C391   1.418       .  A
C391        C392   1.411       .  A
C391        C398   1.505       .  S
C392        H397   1.084       .  S
C392        C393   1.405       .  A
C393        C394   1.419       .  A
C394        C395   1.509       .  S
C395        H399   1.111       .  S
C395        H400   1.109       .  S
C395        H401   1.110       .  S
C398        H402   1.108       .  S
C398        H403   1.110       .  S
C398        H404   1.111       .  S
C405        H412   1.083       .  S
C405        C406   1.406       .  A
C405        C410   1.403       .  A
C406        C407   1.413       .  A
C407        C408   1.404       .  A
C407        C414   1.508       .  S
C408        H413   1.083       .  S
C408        C409   1.408       .  A
C409        C410   1.414       .  A
C410        C411   1.508       .  S
C411        H415   1.111       .  S
C411        H416   1.111       .  S
C411        H417   1.109       .  S
C414        H418   1.110       .  S
C414        H419   1.110       .  S
C414        H420   1.111       .  S
C421        H428   1.085       .  S
C421        C422   1.401       .  A
C421        C426   1.402       .  A
C422        C423   1.415       .  A
C423        C424   1.399       .  A
C423        C430   1.507       .  S
C424        H429   1.085       .  S
C424        C425   1.400       .  A
C425        C426   1.418       .  A
C426        C427   1.509       .  S
C427        H431   1.111       .  S
C427        H432   1.106       .  S
C427        H433   1.110       .  S
C430        H434   1.110       .  S
C430        H435   1.108       .  S
C430        H436   1.111       .  S
C437        H444   1.084       .  S
C437        C438   1.403       .  A
C437        C442   1.409       .  A
C438        C439   1.406       .  A
C439        C440   1.397       .  A
C439        C446   1.510       .  S
C440        H445   1.083       .  S
C440        C441   1.411       .  A
C441        C442   1.420       .  A
C442        C443   1.506       .  S
C443        H447   1.111       .  S
C443        H448   1.110       .  S
C443        H449   1.109       .  S
C446        H450   1.110       .  S
C446        H451   1.109       .  S
C446        H452   1.111       .  S
C453        H460   1.082       .  S
C453        C454   1.405       .  A
C453        C458   1.400       .  A
C454        C455   1.423       .  A
C455        C456   1.405       .  A
C455        C462   1.509       .  S
C456        H461   1.084       .  S
C456        C457   1.397       .  A
C457        C458   1.412       .  A
C458        C459   1.509       .  S
C459        H463   1.111       .  S
C459        H464   1.110       .  S
C459        H465   1.109       .  S
C462        H466   1.110       .  S
C462        H467   1.108       .  S
C462        H468   1.111       .  S
C469        H476   1.083       .  S
C469        C470   1.409       .  A
C469        C474   1.408       .  A
C470        C471   1.426       .  A
C471        C472   1.405       .  A
C471        C478   1.510       .  S
C472        H477   1.085       .  S
C472        C473   1.399       .  A
C473        C474   1.413       .  A
C474        C475   1.506       .  S
C475        H479   1.111       .  S
C475        H480   1.109       .  S
C475        H481   1.110       .  S
C478        H482   1.110       .  S
C478        H483   1.110       .  S
C478        H484   1.111       .  S
C485        H492   1.084       .  S
C485        C486   1.408       .  A
C485        C490   1.407       .  A
C486        C487   1.417       .  A
C487        C488   1.400       .  A
C487        C494   1.509       .  S
C488        H493   1.085       .  S
C488        C489   1.401       .  A
C489        C490   1.409       .  A
C490        C491   1.505       .  S
C491        H495   1.111       .  S
C491        H496   1.110       .  S
C491        H497   1.111       .  S
C494        H498   1.108       .  S
C494        H499   1.110       .  S
C494        H500   1.111       .  S
C501        H508   1.084       .  S
C501        C502   1.410       .  A
C501        C506   1.401       .  A
C502        C503   1.415       .  A
C503        C504   1.399       .  A
C503        C510   1.508       .  S
C504        H509   1.083       .  S
C504        C505   1.405       .  A
C505        C506   1.410       .  A
C506        C507   1.507       .  S
C507        H511   1.111       .  S
C507        H512   1.110       .  S
C507        H513   1.110       .  S
C510        H514   1.110       .  S
C510        H515   1.109       .  S
C510        H516   1.111       .  S
C517        H524   1.081       .  S
C517        C518   1.401       .  A
C517        C522   1.400       .  A
C518        C519   1.423       .  A
C519        C520   1.403       .  A
C519        C526   1.508       .  S
C520        H525   1.084       .  S
C520        C521   1.400       .  A
C521        C522   1.421       .  A
C522        C523   1.511       .  S
C523        H527   1.111       .  S
C523        H528   1.110       .  S
C523        H529   1.109       .  S
C526        H530   1.109       .  S
C526        H531   1.110       .  S
C526        H532   1.111       .  S
C533        H540   1.083       .  S
C533        C534   1.411       .  A
C533        C538   1.402       .  A
C534        C535   1.421       .  A
C535        C536   1.411       .  A
C535        C542   1.505       .  S
C536        H541   1.084       .  S
C536        C537   1.404       .  A
C537        C538   1.410       .  A
C538        C539   1.510       .  S
C539        H543   1.111       .  S
C539        H544   1.110       .  S
C539        H545   1.108       .  S
C542        H546   1.110       .  S
C542        H547   1.109       .  S
C542        H548   1.111       .  S
C549        H556   1.083       .  S
C549        C550   1.412       .  A
C549        C554   1.404       .  A
C550        C551   1.423       .  A
C551        C552   1.407       .  A
C551        C558   1.508       .  S
C552        H557   1.084       .  S
C552        C553   1.401       .  A
C553        C554   1.404       .  A
C554        C555   1.506       .  S
C555        H559   1.111       .  S
C555        H560   1.111       .  S
C555        H561   1.111       .  S
C558        H562   1.110       .  S
C558        H563   1.110       .  S
C558        H564   1.111       .  S
C565        H572   1.084       .  S
C565        C566   1.401       .  A
C565        C570   1.402       .  A
C566        C567   1.418       .  A
C567        C568   1.400       .  A
C567        C574   1.509       .  S
C568        H573   1.084       .  S
C568        C569   1.401       .  A
C569        C570   1.420       .  A
C570        C571   1.509       .  S
C571        H575   1.111       .  S
C571        H576   1.110       .  S
C571        H577   1.110       .  S
C574        H578   1.110       .  S
C574        H579   1.107       .  S
C574        H580   1.111       .  S
C581        H588   1.084       .  S
C581        C582   1.401       .  A
C581        C586   1.403       .  A
C582        C583   1.420       .  A
C583        C584   1.402       .  A
C583        C590   1.509       .  S
C584        H589   1.084       .  S
C584        C585   1.398       .  A
C585        C586   1.416       .  A
C586        C587   1.509       .  S
C587        H591   1.111       .  S
C587        H592   1.110       .  S
C587        H593   1.106       .  S
C590        H594   1.109       .  S
C590        H595   1.110       .  S
C590        H596   1.111       .  S
C597        H604   1.082       .  S
C597        C598   1.403       .  A
C597        C602   1.406       .  A
C598        C599   1.412       .  A
C599        C600   1.399       .  A
C599        C606   1.509       .  S
C600        H605   1.082       .  S
C600        C601   1.408       .  A
C601        C602   1.419       .  A
C602        C603   1.507       .  S
C603        H607   1.111       .  S
C603        H608   1.109       .  S
C603        H609   1.110       .  S
C606        H610   1.110       .  S
C606        H611   1.106       .  S
C606        H612   1.110       .  S
C613        H620   1.084       .  S
C613        C614   1.399       .  A
C613        C618   1.407       .  A
C614        C615   1.415       .  A
C615        C616   1.405       .  A
C615        C622   1.508       .  S
C616        H621   1.084       .  S
C616        C617   1.408       .  A
C617        C618   1.425       .  A
C618        C619   1.508       .  S
C619        H623   1.111       .  S
C619        H624   1.110       .  S
C619        H625   1.109       .  S
C622        H626   1.107   1_565  S
C622        H627   1.110   1_565  S
C622        H628   1.111   1_565  S
C629        H636   1.085       .  S
C629        C630   1.398       .  A
C629        C634   1.405       .  A
C630        C631   1.410       .  A
C631        C632   1.404       .  A
C631        C638   1.506       .  S
C632        H637   1.083       .  S
C632        C633   1.410       .  A
C633        C634   1.427       .  A
C634        C635   1.508       .  S
C635        H639   1.111       .  S
C635        H640   1.109       .  S
C635        H641   1.110       .  S
C638        H642   1.107   1_455  S
C638        H643   1.110   1_455  S
C638        H644   1.110       .  S
C645        H652   1.084       .  S
C645        C646   1.409       .  A
C645        C650   1.404       .  A
C646        C647   1.421       .  A
C647        C648   1.411       .  A
C647        C654   1.507       .  S
C648        H653   1.084       .  S
C648        C649   1.404       .  A
C649        C650   1.411       .  A
C650        C651   1.508   1_655  S
C651        H655   1.111       .  S
C651        H656   1.110       .  S
C651        H657   1.109       .  S
C654        H658   1.110       .  S
C654        H659   1.109       .  S
C654        H660   1.111       .  S
C661        H668   1.084       .  S
C661        C662   1.402       .  A
C661        C666   1.404       .  A
C662        C663   1.415       .  A
C663        C664   1.407       .  A
C663        C670   1.507       .  S
C664        H669   1.084       .  S
C664        C665   1.408       .  A
C665        C666   1.422       .  A
C666        C667   1.509       .  S
C667        H671   1.111       .  S
C667        H672   1.107       .  S
C667        H673   1.110       .  S
C670        H674   1.107       .  S
C670        H675   1.110       .  S
C670        H676   1.110       .  S
C677        H684   1.084       .  S
C677        C678   1.405       .  A
C677        C682   1.406       .  A
C678        C679   1.419       .  A
C679        C680   1.407       .  A
C679        C686   1.510       .  S
C680        H685   1.083       .  S
C680        C681   1.406       .  A
C681        C682   1.417       .  A
C682        C683   1.506       .  S
C683        H687   1.111       .  S
C683        H688   1.110       .  S
C683        H689   1.105       .  S
C686        H690   1.107       .  S
C686        H691   1.108       .  S
C686        H692   1.111       .  S
C693        H700   1.084       .  S
C693        C694   1.399       .  A
C693        C698   1.407       .  A
C694        C695   1.413       .  A
C695        C696   1.401       .  A
C695        C702   1.510       .  S
C696        H701   1.083       .  S
C696        C697   1.407       .  A
C697        C698   1.425       .  A
C698        C699   1.508       .  S
C699        H703   1.111       .  S
C699        H704   1.109       .  S
C699        H705   1.110       .  S
C702        H706   1.108       .  S
C702        H707   1.110       .  S
C702        H708   1.111       .  S
C709        H716   1.084       .  S
C709        C710   1.410       .  A
C709        C714   1.402       .  A
C710        C711   1.424       .  A
C711        C712   1.407       .  A
C711        C718   1.509       .  S
C712        H717   1.083       .  S
C712        C713   1.401       .  A
C713        C714   1.411       .  A
C714        C715   1.508       .  S
C715        H719   1.110       .  S
C715        H720   1.110       .  S
C715        H721   1.108       .  S
C718        H722   1.110       .  S
C718        H723   1.110       .  S
C718        H724   1.111       .  S
C725        H732   1.083       .  S
C725        C726   1.410       .  A
C725        C730   1.408       .  A
C726        C727   1.425       .  A
C727        C728   1.411       .  A
C727        C734   1.509       .  S
C728        H733   1.083   1_554  S
C728        C729   1.402       .  A
C729        C730   1.411       .  A
C730        C731   1.506       .  S
C731        H735   1.111       .  S
C731        H736   1.108   1_554  S
C731        H737   1.110       .  S
C734        H738   1.111       .  S
C734        H739   1.109       .  S
C734        H740   1.111       .  S
C741        H748   1.084       .  S
C741        C742   1.400       .  A
C741        C746   1.409       .  A
C742        C743   1.414       .  A
C743        C744   1.403       .  A
C743        C750   1.508       .  S
C744        H749   1.084       .  S
C744        C745   1.404       .  A
C745        C746   1.422       .  A
C746        C747   1.508       .  S
C747        H751   1.111       .  S
C747        H752   1.107       .  S
C747        H753   1.110       .  S
C750        H754   1.109       .  S
C750        H755   1.110       .  S
C750        H756   1.111       .  S
C757        H764   1.084       .  S
C757        C758   1.407       .  A
C757        C762   1.403       .  A
C758        C759   1.422       .  A
C759        C760   1.409       .  A
C759        C766   1.506       .  S
C760        H765   1.084       .  S
C760        C761   1.402       .  A
C761        C762   1.414       .  A
C762        C763   1.508       .  S
C763        H767   1.110   1_455  S
C763        H768   1.110   1_455  S
C763        H769   1.107   1_455  S
C766        H770   1.106       .  S
C766        H771   1.110       .  S
C766        H772   1.111       .  S
C773        H780   1.084       .  S
C773        C774   1.408       .  A
C773        C778   1.399       .  A
C774        C775   1.415       .  A
C775        C776   1.403       .  A
C775        C782   1.506       .  S
C776        H781   1.085       .  S
C776        C777   1.402       .  A
C777        C778   1.407       .  A
C778        C779   1.508       .  S
C779        H783   1.111       .  S
C779        H784   1.111       .  S
C779        H785   1.108       .  S
C782        H786   1.106       .  S
C782        H787   1.110       .  S
C782        H788   1.111       .  S
C789        H796   1.084       .  S
C789        C790   1.408       .  A
C789        C794   1.410       .  A
C790        C791   1.419       .  A
C791        C792   1.405       .  A
C791        C798   1.508       .  S
C792        H797   1.083       .  S
C792        C793   1.404       .  A
C793        C794   1.417       .  A
C794        C795   1.507   1_545  S
C795        H799   1.111       .  S
C795        H800   1.108       .  S
C795        H801   1.110       .  S
C798        H802   1.110       .  S
C798        H803   1.106       .  S
C798        H804   1.111       .  S
C805        H812   1.085       .  S
C805        C806   1.403       .  A
C805        C810   1.407       .  A
C806        C807   1.406       .  A
C807        C808   1.406       .  A
C807        C814   1.506       .  S
C808        H813   1.084       .  S
C808        C809   1.411       .  A
C809        C810   1.419       .  A
C810        C811   1.508       .  S
C811        H815   1.111       .  S
C811        H816   1.110       .  S
C811        H817   1.111       .  S
C814        H818   1.110       .  S
C814        H819   1.111       .  S
C814        H820   1.111       .  S
C821        H828   1.084       .  S
C821        C822   1.400       .  A
C821        C826   1.403   1_556  A
C822        C823   1.413   1_556  A
C823        C824   1.403       .  A
C823        C830   1.508       .  S
C824        H829   1.084       .  S
C824        C825   1.407       .  A
C825        C826   1.421       .  A
C826        C827   1.504       .  S
C827        H831   1.111   1_554  S
C827        H832   1.108       .  S
C827        H833   1.111       .  S
C830        H834   1.110   1_455  S
C830        H835   1.108   1_455  S
C830        H836   1.111       .  S
C837        H844   1.085       .  S
C837        C838   1.404       .  A
C837        C842   1.401       .  A
C838        C839   1.409       .  A
C839        C840   1.401       .  A
C839        C846   1.504       .  S
C840        H845   1.084       .  S
C840        C841   1.404       .  A
C841        C842   1.414       .  A
C842        C843   1.508       .  S
C843        H847   1.111       .  S
C843        H848   1.107       .  S
C843        H849   1.110       .  S
C846        H850   1.110       .  S
C846        H851   1.104       .  S
C846        H852   1.111       .  S
C853        H860   1.084       .  S
C853        C854   1.403       .  A
C853        C858   1.405       .  A
C854        C855   1.415       .  A
C855        C856   1.407       .  A
C855        C862   1.506       .  S
C856        H861   1.083       .  S
C856        C857   1.405       .  A
C857        C858   1.419       .  A
C858        C859   1.509       .  S
C859        H863   1.111       .  S
C859        H864   1.109       .  S
C859        H865   1.110       .  S
C862        H866   1.110       .  S
C862        H867   1.111       .  S
C862        H868   1.111       .  S
C869        H876   1.085       .  S
C869        C870   1.398       .  A
C869        C874   1.402       .  A
C870        C871   1.417       .  A
C871        C872   1.403       .  A
C871        C878   1.510       .  S
C872        H877   1.084       .  S
C872        C873   1.401       .  A
C873        C874   1.419       .  A
C874        C875   1.509       .  S
C875        H879   1.111       .  S
C875        H880   1.106       .  S
C875        H881   1.110       .  S
C878        H882   1.106       .  S
C878        H883   1.110       .  S
C878        H884   1.111       .  S
C885        H892   1.084       .  S
C885        C886   1.403       .  A
C885        C890   1.409       .  A
C886        C887   1.408       .  A
C887        C888   1.401       .  A
C887        C894   1.510       .  S
C888        H893   1.083       .  S
C888        C889   1.412       .  A
C889        C890   1.422       .  A
C890        C891   1.507       .  S
C891        H895   1.111       .  S
C891        H896   1.109       .  S
C891        H897   1.110       .  S
C894        H898   1.107       .  S
C894        H899   1.110       .  S
C894        H900   1.111       .  S
C901        H908   1.083       .  S
C901        C902   1.397       .  A
C901        C906   1.400       .  A
C902        C903   1.419       .  A
C903        C904   1.405       .  A
C903        C910   1.509       .  S
C904        H909   1.084       .  S
C904        C905   1.405       .  A
C905        C906   1.427       .  A
C906        C907   1.512       .  S
C907        H911   1.111       .  S
C907        H912   1.110       .  S
C907        H913   1.110       .  S
C910        H914   1.110       .  S
C910        H915   1.110       .  S
C910        H916   1.111       .  S
C917        H924   1.084   1_655  S
C917        C918   1.403   1_554  A
C917        C922   1.405       .  A
C918        C919   1.411   1_556  A
C919        C920   1.404       .  A
C919        C926   1.506   1_554  S
C920        H925   1.083       .  S
C920        C921   1.410       .  A
C921        C922   1.421       .  A
C922        C923   1.508       .  S
C923        H927   1.111   1_655  S
C923        H928   1.110       .  S
C923        H929   1.110       .  S
C926        H930   1.105       .  S
C926        H931   1.110   1_556  S
C926        H932   1.111       .  S
C933        H940   1.084       .  S
C933        C934   1.402       .  A
C933        C938   1.403       .  A
C934        C935   1.419       .  A
C935        C936   1.402       .  A
C935        C942   1.509       .  S
C936        H941   1.084       .  S
C936        C937   1.399       .  A
C937        C938   1.417       .  A
C938        C939   1.509   1_655  S
C939        H943   1.111       .  S
C939        H944   1.107       .  S
C939        H945   1.110       .  S
C942        H946   1.111       .  S
C942        H947   1.109       .  S
C942        H948   1.111       .  S
C949        H956   1.083       .  S
C949        C950   1.405       .  A
C949        C954   1.402       .  A
C950        C951   1.414       .  A
C951        C952   1.402       .  A
C951        C958   1.509       .  S
C952        H957   1.084       .  S
C952        C953   1.407       .  A
C953        C954   1.414       .  A
C954        C955   1.507       .  S
C955        H959   1.111       .  S
C955        H960   1.111       .  S
C955        H961   1.109       .  S
C958        H962   1.110       .  S
C958        H963   1.110       .  S
C958        H964   1.111       .  S
C965        H972   1.083       .  S
C965        C966   1.413       .  A
C965        C970   1.408       .  A
C966        C967   1.429       .  A
C967        C968   1.406       .  A
C967        C974   1.508       .  S
C968        H973   1.084       .  S
C968        C969   1.397       .  A
C969        C970   1.408       .  A
C970        C971   1.506       .  S
C971        H975   1.111       .  S
C971        H976   1.108       .  S
C971        H977   1.110       .  S
C974        H978   1.110       .  S
C974        H979   1.108       .  S
C974        H980   1.111       .  S
C981        H988   1.081       .  S
C981        C982   1.406       .  A
C981        C986   1.402       .  A
C982        C983   1.422       .  A
C983        C984   1.409       .  A
C983        C990   1.507       .  S
C984        H989   1.084       .  S
C984        C985   1.399       .  A
C985        C986   1.412       .  A
C986        C987   1.510       .  S
C987        H991   1.111       .  S
C987        H992   1.110       .  S
C987        H993   1.109       .  S
C990        H994   1.111       .  S
C990        H995   1.110       .  S
C990        H996   1.109       .  S
C997       H1004   1.084       .  S
C997        C998   1.405       .  A
C997       C1002   1.413       .  A
C998        C999   1.417       .  A
C999       C1000   1.401       .  A
C999       C1006   1.511       .  S
C1000      H1005   1.085       .  S
C1000      C1001   1.404       .  A
C1001      C1002   1.419       .  A
C1002      C1003   1.505       .  S
C1003      H1007   1.111       .  S
C1003      H1008   1.110       .  S
C1003      H1009   1.109       .  S
C1006      H1010   1.105       .  S
C1006      H1011   1.110       .  S
C1006      H1012   1.111       .  S
C1013      H1020   1.084       .  S
C1013      C1014   1.408       .  A
C1013      C1018   1.407       .  A
C1014      C1015   1.422       .  A
C1015      C1016   1.405   1_554  A
C1015      C1022   1.509       .  S
C1016      H1021   1.084       .  S
C1016      C1017   1.402       .  A
C1017      C1018   1.415   1_556  A
C1018      C1019   1.507       .  S
C1019      H1023   1.111       .  S
C1019      H1024   1.107       .  S
C1019      H1025   1.110       .  S
C1022      H1026   1.110   1_554  S
C1022      H1027   1.106       .  S
C1022      H1028   1.111   1_554  S
C1029      H1036   1.085       .  S
C1029      C1030   1.395       .  A
C1029      C1034   1.407       .  A
C1030      C1031   1.410       .  A
C1031      C1032   1.406       .  A
C1031      C1038   1.508       .  S
C1032      H1037   1.083       .  S
C1032      C1033   1.409       .  A
C1033      C1034   1.429       .  A
C1034      C1035   1.510       .  S
C1035      H1039   1.111       .  S
C1035      H1040   1.109       .  S
C1035      H1041   1.110       .  S
C1038      H1042   1.110       .  S
C1038      H1043   1.110       .  S
C1038      H1044   1.111       .  S
C1045      H1052   1.084       .  S
C1045      C1046   1.409       .  A
C1045      C1050   1.406       .  A
C1046      C1047   1.415       .  A
C1047      C1048   1.400       .  A
C1047      C1054   1.508       .  S
C1048      H1053   1.084       .  S
C1048      C1049   1.402       .  A
C1049      C1050   1.408       .  A
C1050      C1051   1.505       .  S
C1051      H1055   1.111       .  S
C1051      H1056   1.110       .  S
C1051      H1057   1.109       .  S
C1054      H1058   1.110       .  S
C1054      H1059   1.107       .  S
C1054      H1060   1.111       .  S
C1061      H1068   1.083       .  S
C1061      C1062   1.403       .  A
C1061      C1066   1.406       .  A
C1062      C1063   1.412       .  A
C1063      C1064   1.399       .  A
C1063      C1070   1.508       .  S
C1064      H1069   1.082       .  S
C1064      C1065   1.405       .  A
C1065      C1066   1.418       .  A
C1066      C1067   1.507       .  S
C1067      H1071   1.111       .  S
C1067      H1072   1.110       .  S
C1067      H1073   1.107       .  S
C1070      H1074   1.110       .  S
C1070      H1075   1.107       .  S
C1070      H1076   1.111       .  S
C1077      H1084   1.084       .  S
C1077      C1078   1.410       .  A
C1077      C1082   1.400       .  A
C1078      C1079   1.418       .  A
C1079      C1080   1.400       .  A
C1079      C1086   1.508       .  S
C1080      H1085   1.083       .  S
C1080      C1081   1.403       .  A
C1081      C1082   1.410       .  A
C1082      C1083   1.508       .  S
C1083      H1087   1.111       .  S
C1083      H1088   1.110       .  S
C1083      H1089   1.109       .  S
C1086      H1090   1.110       .  S
C1086      H1091   1.110       .  S
C1086      H1092   1.111       .  S
C1093      H1100   1.084       .  S
C1093      C1094   1.407       .  A
C1093      C1098   1.400       .  A
C1094      C1095   1.414       .  A
C1095      C1096   1.400       .  A
C1095      C1102   1.508       .  S
C1096      H1101   1.085       .  S
C1096      C1097   1.402       .  A
C1097      C1098   1.407       .  A
C1098      C1099   1.507       .  S
C1099      H1103   1.111       .  S
C1099      H1104   1.109       .  S
C1099      H1105   1.110       .  S
C1102      H1106   1.110       .  S
C1102      H1107   1.108       .  S
C1102      H1108   1.111       .  S
